18
Properties=species:S:1:pos:R:3 gdb_70922=T pbc="F F F"
C        0.06810000       1.51760000      -0.00920000
C        0.01450000       0.01500000       0.00830000
C        0.61330000      -0.96300000      -1.11600000
C       -0.03720000      -1.84020000      -0.02820000
C        0.62820000      -0.94790000       1.05540000
O       -0.51370000      -3.14250000       0.29230000
C       -1.65490000      -2.78810000       0.99910000
N       -2.09860000      -1.58830000       0.98120000
C       -1.24690000      -0.94230000      -0.04310000
H        1.10340000       1.87390000      -0.04030000
H       -0.45560000       1.92210000      -0.88140000
H       -0.40400000       1.92920000       0.88860000
H        0.12660000      -0.93810000      -2.09360000
H        1.70260000      -0.97260000      -1.19400000
H        1.71890000      -0.97890000       1.11090000
H        0.16660000      -0.94830000       2.04310000
H       -2.10050000      -3.61340000       1.54340000
H       -1.82130000      -0.84980000      -0.97230000
