16
Properties=species:S:1:pos:R:3 gdb_32303=T pbc="F F F"
C       -0.12940000       1.35150000      -0.01600000
O       -0.06180000      -0.05910000       0.07870000
C        0.65060000      -0.58040000       1.09400000
C        1.32140000       0.10850000       2.05140000
C        2.03850000      -0.60790000       3.07320000
C        2.02820000      -1.94730000       3.05690000
O        1.36450000      -2.65830000       2.10950000
C        0.64810000      -2.05120000       1.08860000
N        0.03870000      -2.74400000       0.21880000
H        0.86710000       1.79190000      -0.15110000
H       -0.74330000       1.56610000      -0.89130000
H       -0.59640000       1.79060000       0.87520000
H        1.32680000       1.19030000       2.06040000
H        2.58030000      -0.08010000       3.84650000
H        2.52500000      -2.59720000       3.76450000
H        0.17090000      -3.73850000       0.40610000
