18
Properties=species:S:1:pos:R:3 gdb_5524=T pbc="F F F"
C        0.04540000       1.57880000       0.15040000
C       -0.02130000       0.04840000      -0.01900000
C       -1.40880000      -0.50410000      -0.08160000
C       -2.24950000      -0.73260000      -1.15590000
N       -1.97930000      -0.45400000      -2.51460000
C       -3.48660000      -1.22340000      -0.64540000
C       -3.37250000      -1.27810000       0.72480000
N       -2.12400000      -0.83540000       1.05850000
H        1.08280000       1.92880000       0.18710000
H       -0.45900000       2.08120000      -0.68010000
H       -0.45110000       1.89130000       1.07470000
H        0.51670000      -0.23340000      -0.93380000
H        0.53150000      -0.43140000       0.80050000
H       -0.98500000      -0.42140000      -2.70710000
H       -2.39490000      -1.14590000      -3.12700000
H       -4.35630000      -1.49540000      -1.22460000
H       -4.07250000      -1.60020000       1.47870000
H       -1.75510000      -0.79170000       1.99170000
