13
Properties=species:S:1:pos:R:3 gdb_80166=T pbc="F F F"
O       -0.28350000       1.45150000      -0.01890000
C       -0.11410000       0.07370000      -0.00030000
C       -0.48210000      -0.71500000       1.21790000
O       -1.09850000       0.02710000       2.25320000
C       -2.33270000       0.47990000       1.87240000
O       -3.02740000       1.15590000       2.56190000
C       -2.62120000      -0.05740000       0.44390000
O       -3.67610000       0.05360000      -0.11250000
C       -1.38840000      -0.76940000       0.00170000
H        0.38300000       1.85380000       0.55040000
H        0.69390000      -0.32120000      -0.61550000
H        0.09860000      -1.55050000       1.58720000
H       -1.47540000      -1.61650000      -0.66480000
