19
Properties=species:S:1:pos:R:3 gdb_97458=T pbc="F F F"
N       -0.33820000       1.32710000       0.25680000
C       -0.17790000       0.00490000       0.17450000
N       -0.88920000      -0.79630000      -0.56530000
H       -1.67030000      -0.41280000      -1.08850000
C       -0.91340000      -2.27840000      -0.45390000
C       -2.23280000      -2.71560000       0.17380000
C       -2.48150000      -4.21820000       0.14490000
C       -4.06070000      -4.50210000       0.14450000
O       -4.75220000      -3.56960000      -0.31430000
O       -4.35630000      -5.62370000       0.57560000
H        0.24140000       1.86720000       0.87630000
H       -1.08510000       1.80990000      -0.21790000
H        0.61750000      -0.43370000       0.76770000
H       -0.80590000      -2.67810000      -1.46620000
H       -0.03040000      -2.56930000       0.12420000
H       -2.28540000      -2.32210000       1.19760000
H       -3.08700000      -2.29490000      -0.38070000
H       -2.09360000      -4.65270000      -0.78700000
H       -2.00630000      -4.74940000       0.97370000
