21
Properties=species:S:1:pos:R:3 gdb_89610=T pbc="F F F"
C       -0.14820000       1.54770000       0.03880000
C        0.19910000       0.07570000      -0.14840000
C        1.52740000      -0.30570000      -0.89230000
C        1.94770000      -1.16840000       0.30710000
C        2.00320000      -0.31460000       1.55620000
C        0.66300000      -0.73530000       1.07300000
C        2.51820000      -2.53730000       0.32340000
C        2.88430000      -3.15090000      -1.01680000
O        2.67020000      -3.14710000       1.36420000
H        0.66480000       2.09780000       0.52360000
H       -0.34360000       2.02760000      -0.92650000
H       -1.04460000       1.66440000       0.65750000
H       -0.64040000      -0.43590000      -0.62880000
H        1.34800000      -0.86930000      -1.80990000
H        2.20170000       0.52630000      -1.12440000
H        2.36920000      -0.84720000       2.42640000
H        2.33580000       0.71630000       1.46470000
H        0.03700000      -1.39160000       1.66610000
H        3.56310000      -2.49500000      -1.57330000
H        3.35320000      -4.12200000      -0.85520000
H        1.98900000      -3.27890000      -1.63620000
