14
Properties=species:S:1:pos:R:3 gdb_5167=T pbc="F F F"
O       -0.52590000       0.54960000       0.66930000
C        0.09330000       0.95590000      -0.27690000
C        1.32390000       1.85460000      -0.17460000
C        1.27210000       2.98960000      -1.13820000
C        0.91840000       4.29960000      -1.02900000
C        1.03810000       4.86470000      -2.34090000
C        1.44820000       3.85440000      -3.14860000
O        1.59500000       2.70450000      -2.43460000
H       -0.19590000       0.69730000      -1.31970000
H        1.40370000       2.21510000       0.85310000
H        2.20270000       1.23050000      -0.38880000
H        0.61330000       4.80250000      -0.12460000
H        0.84670000       5.88470000      -2.63450000
H        1.67740000       3.78400000      -4.19890000
