13
Properties=species:S:1:pos:R:3 gdb_23922=T pbc="F F F"
F       -0.19680000       0.08980000       0.09660000
C       -0.04160000       1.41780000       0.06460000
F        1.27560000       1.66710000      -0.04990000
F       -0.63360000       1.87140000      -1.05130000
C       -0.61990000       2.08860000       1.29690000
C        0.04930000       1.62900000       2.57060000
C       -0.66850000       1.62550000       3.85000000
O       -0.42890000       0.41120000       3.13850000
H       -0.49230000       3.16840000       1.16730000
H       -1.68980000       1.86800000       1.33220000
H        1.13380000       1.73560000       2.58830000
H       -0.11420000       1.74470000       4.77930000
H       -1.70750000       1.95150000       3.88330000
