17
Properties=species:S:1:pos:R:3 gdb_81347=T pbc="F F F"
N        0.04420000       1.31980000      -0.16530000
C       -0.01350000      -0.04830000      -0.00830000
N       -1.12230000      -0.68300000      -0.01320000
C       -1.00540000      -2.14580000       0.01780000
C        0.45200000      -2.61140000       0.02160000
O        1.15150000      -1.84210000       1.05290000
C        1.30840000      -0.80240000       0.05950000
C        1.26470000      -1.87680000      -1.06350000
O        2.47260000      -2.55060000      -1.30070000
H        0.79670000       1.79450000       0.31100000
H       -0.85240000       1.77920000      -0.07470000
H       -1.51660000      -2.52190000       0.91300000
H       -1.53420000      -2.56840000      -0.84740000
H        0.59570000      -3.68960000       0.12530000
H        2.20210000      -0.18830000       0.20450000
H        0.74730000      -1.60180000      -1.99120000
H        3.02720000      -1.99280000      -1.85570000
