16
Properties=species:S:1:pos:R:3 gdb_4027=T pbc="F F F"
C       -0.08830000       1.42120000      -0.03260000
N       -0.03540000      -0.01890000       0.09600000
C        0.62510000      -0.64160000       1.10300000
O        1.23350000      -0.06390000       1.99090000
C        0.56820000      -2.15550000       1.07030000
C        1.27450000      -2.91490000       2.15020000
N       -0.09030000      -2.67850000       0.10610000
O       -0.08850000      -4.06820000       0.15670000
H        0.47760000       1.84730000       0.79660000
H        0.35720000       1.75410000      -0.97700000
H       -1.12000000       1.78830000       0.01350000
H       -0.49870000      -0.61190000      -0.57480000
H        0.56600000      -3.54920000       2.69260000
H        2.02510000      -3.58250000       1.71500000
H        1.74940000      -2.21420000       2.83510000
H       -0.61190000      -4.31040000      -0.61580000
