23
Properties=species:S:1:pos:R:3 gdb_92327=T pbc="F F F"
C       -0.79560000       1.39660000      -0.08140000
C       -0.03000000       0.07890000      -0.09890000
C        1.25800000      -0.00960000      -0.96710000
C        2.01390000      -0.70010000       0.20410000
C        3.19430000       0.09120000       0.79360000
C        2.52300000       1.22330000       1.59100000
C        1.29390000       0.53240000       2.21360000
O        0.27000000       1.40270000       2.66730000
C        0.77920000      -0.44340000       1.14020000
H       -0.15440000       2.24130000       0.18250000
H       -1.22110000       1.58970000      -1.07380000
H       -1.61360000       1.37570000       0.64380000
H       -0.72420000      -0.71550000      -0.39490000
H        1.17440000      -0.58820000      -1.89070000
H        1.67310000       0.97150000      -1.22330000
H        2.26090000      -1.74590000       0.01120000
H        3.77630000      -0.54690000       1.46980000
H        3.88190000       0.45730000       0.02420000
H        3.18220000       1.67140000       2.34220000
H        2.18860000       2.02830000       0.92680000
H        1.65140000      -0.08590000       3.05550000
H        0.64120000       1.96220000       3.35650000
H        0.32100000      -1.31560000       1.61120000
