17
Properties=species:S:1:pos:R:3 gdb_32654=T pbc="F F F"
C        0.04270000       1.54860000       0.05250000
C        0.01210000       0.02120000      -0.02390000
N        0.69780000      -0.50680000      -1.20400000
C        0.08520000      -0.83110000      -2.37880000
C        1.08930000      -1.22260000      -3.24190000
N        2.29660000      -1.14420000      -2.63090000
C        2.05230000      -0.70650000      -1.40130000
C        3.05760000      -0.46860000      -0.36350000
O        4.24710000      -0.62420000      -0.50710000
H        1.06860000       1.91970000       0.12410000
H       -0.41920000       1.99150000      -0.83420000
H       -0.50710000       1.88840000       0.93510000
H        0.46070000      -0.42210000       0.86830000
H       -1.01960000      -0.33800000      -0.06920000
H       -0.98510000      -0.76360000      -2.49360000
H        0.98830000      -1.55960000      -4.26290000
H        2.64320000      -0.12040000       0.60920000
