16
Properties=species:S:1:pos:R:3 gdb_81717=T pbc="F F F"
C       -0.03960000       1.63120000      -0.08450000
C        0.03930000       0.11270000      -0.02170000
C        0.69960000      -0.66820000      -1.17310000
N        2.09170000      -0.23470000      -1.21410000
C        1.69600000      -1.33980000      -0.24820000
C        2.29830000      -2.62070000      -0.28440000
C        2.80790000      -3.71100000      -0.28140000
C        1.07840000      -0.56880000       0.92080000
O        1.22940000      -0.59240000       2.10290000
H        0.91480000       2.04970000      -0.41160000
H       -0.82110000       1.95780000      -0.77800000
H       -0.27530000       2.03660000       0.90400000
H       -0.93460000      -0.32750000       0.22820000
H        0.21140000      -1.12400000      -2.02490000
H        2.55900000      -0.70980000      -1.98720000
H        3.25550000      -4.67410000      -0.27590000
