19
Properties=species:S:1:pos:R:3 gdb_86899=T pbc="F F F"
C       -0.40510000       1.44320000      -0.17220000
C        0.27650000       0.09050000      -0.09150000
O        1.50260000       0.13360000      -0.83790000
C        2.34760000      -0.87290000      -0.32560000
O        1.81800000      -1.29920000       0.91350000
C        0.76020000      -0.40040000       1.28420000
C        1.27480000       0.67600000       2.23420000
C        2.35330000      -2.07480000      -1.27420000
O        3.34310000      -2.52060000      -1.78720000
H        0.23740000       2.23610000       0.21700000
H       -0.64710000       1.67770000      -1.21200000
H       -1.33840000       1.43170000       0.39940000
H       -0.38440000      -0.67780000      -0.51990000
H        3.36650000      -0.47470000      -0.22880000
H       -0.00630000      -1.00620000       1.77730000
H        2.00650000       1.32260000       1.74110000
H        0.45450000       1.29910000       2.60410000
H        1.75850000       0.20210000       3.09210000
H        1.33990000      -2.49780000      -1.45650000
