18
Properties=species:S:1:pos:R:3 gdb_45141=T pbc="F F F"
N        0.23820000       1.11050000       0.36780000
C        0.06130000      -0.07640000       0.00550000
O        0.92570000      -0.96600000      -0.61580000
C       -0.11310000      -1.99260000      -0.69360000
C       -0.06180000      -2.97120000       0.49800000
C       -0.97900000      -2.00920000       1.27950000
C       -2.10410000      -2.38540000       2.19800000
C       -0.91410000      -1.61700000       2.72410000
C       -1.08850000      -1.05330000       0.07120000
H        1.18720000       1.42590000       0.15880000
H       -0.23880000      -2.35530000      -1.71260000
H       -0.52900000      -3.93590000       0.27730000
H        0.94160000      -3.13920000       0.89680000
H       -3.04760000      -1.85950000       2.09150000
H       -2.20420000      -3.43070000       2.47360000
H       -0.20690000      -2.14170000       3.35840000
H       -1.04190000      -0.56760000       2.96710000
H       -2.07160000      -0.73070000      -0.26610000
