17
Properties=species:S:1:pos:R:3 gdb_124619=T pbc="F F F"
C       -0.06180000       1.50400000      -0.03900000
C       -0.02300000      -0.02640000      -0.05380000
C       -1.41460000      -0.65970000       0.02360000
N        0.69760000      -0.51130000      -1.23470000
N        0.28040000      -0.28730000      -2.48990000
N        1.06170000      -0.79960000      -3.31480000
O        2.11920000      -1.43880000      -2.58080000
C        1.87390000      -1.24660000      -1.25200000
N        2.52970000      -1.62620000      -0.23960000
H        0.94780000       1.92170000      -0.07560000
H       -0.62810000       1.88630000      -0.89350000
H       -0.54570000       1.85330000       0.87730000
H        0.59350000      -0.38780000       0.77420000
H       -2.02790000      -0.35460000      -0.82940000
H       -1.34840000      -1.75090000       0.03190000
H       -1.91730000      -0.33860000       0.94010000
H        3.35760000      -2.15100000      -0.50680000
