17
Properties=species:S:1:pos:R:3 gdb_9295=T pbc="F F F"
O       -0.67470000       1.19120000       0.67670000
C       -0.57820000      -0.21100000       0.56320000
C       -1.48440000      -0.72990000      -0.55240000
O       -1.17150000      -0.07170000      -1.78130000
C       -1.41890000      -2.24740000      -0.73910000
O       -1.78350000      -2.93530000       0.45160000
C       -3.06080000      -3.36220000       0.55600000
N       -3.46720000      -3.87200000       1.63430000
H       -0.67450000       1.53110000      -0.22700000
H        0.46040000      -0.53270000       0.35330000
H       -0.86650000      -0.64790000       1.52300000
H       -2.51640000      -0.43460000      -0.33020000
H       -0.27110000      -0.31760000      -2.02860000
H       -2.06000000      -2.53940000      -1.58020000
H       -0.39270000      -2.55710000      -0.97200000
H       -3.64080000      -3.22580000      -0.36800000
H       -4.43810000      -4.16180000       1.53940000
