20
Properties=species:S:1:pos:R:3 gdb_121055=T pbc="F F F"
C       -0.19880000       1.19400000      -0.52570000
O       -0.11720000      -0.14790000      -0.10520000
C       -1.37460000      -0.77630000       0.01390000
C       -1.12750000      -2.23120000       0.42790000
C       -2.41940000      -3.05550000       0.40910000
C       -2.44850000      -3.66810000      -0.99440000
O       -3.38790000      -4.19750000      -1.52560000
C       -1.06040000      -3.46730000      -1.60800000
N       -0.25050000      -2.96590000      -0.50170000
H        0.82160000       1.57890000      -0.59200000
H       -0.67930000       1.28340000      -1.51260000
H       -0.76590000       1.81030000       0.18880000
H       -1.99750000      -0.26630000       0.76880000
H       -1.92120000      -0.72820000      -0.94510000
H       -0.65760000      -2.21840000       1.41690000
H       -2.37210000      -3.87710000       1.13240000
H       -3.33210000      -2.48920000       0.60960000
H       -0.67750000      -4.41350000      -2.00630000
H       -1.17270000      -2.77980000      -2.46450000
H        0.51180000      -2.37110000      -0.80390000
