23
Properties=species:S:1:pos:R:3 gdb_105040=T pbc="F F F"
C        0.02660000       1.46420000       0.34040000
C       -0.01040000      -0.02430000       0.03380000
C        1.01720000      -0.51020000      -0.96740000
C        1.20510000      -0.80180000       0.50170000
C       -1.38700000      -0.67970000       0.02300000
C       -1.39270000      -2.18130000       0.27880000
O       -2.70730000      -2.69120000       0.10360000
C       -2.59620000       0.07560000       0.52900000
C       -2.41470000      -0.15140000      -0.95230000
H        1.04630000       1.84620000       0.23270000
H       -0.60920000       2.04240000      -0.33920000
H       -0.29780000       1.67270000       1.36520000
H        0.74900000      -1.33720000      -1.61640000
H        1.66040000       0.22630000      -1.43760000
H        1.96920000      -0.25240000       1.04210000
H        1.09620000      -1.82720000       0.83330000
H       -0.69540000      -2.68560000      -0.41000000
H       -1.03990000      -2.37330000       1.30420000
H       -2.69470000      -3.62510000       0.32850000
H       -3.36290000      -0.50770000       1.02490000
H       -2.46720000       1.07790000       0.91740000
H       -2.13170000       0.69430000      -1.57020000
H       -3.06750000      -0.86940000      -1.43240000
