20
Properties=species:S:1:pos:R:3 gdb_100434=T pbc="F F F"
C       -0.17350000       1.37350000      -0.08370000
O        0.12750000      -0.01330000       0.06360000
C        0.53610000      -0.65810000      -1.05070000
C        0.82090000      -2.11010000      -0.76410000
N        0.63890000      -0.04540000      -2.15580000
C        1.07970000      -0.77300000      -3.33090000
C        1.18740000       0.20100000      -4.51910000
C        1.62160000      -0.45240000      -5.74680000
C        1.98130000      -1.02020000      -6.74360000
H        0.70390000       1.92820000      -0.42810000
H       -0.97800000       1.52250000      -0.80950000
H       -0.48040000       1.71540000       0.90580000
H        0.63730000      -2.33890000       0.28540000
H        0.19000000      -2.75170000      -1.38780000
H        1.86150000      -2.34880000      -1.00700000
H        2.05790000      -1.25210000      -3.17680000
H        0.37830000      -1.57770000      -3.59650000
H        0.21230000       0.67980000      -4.66760000
H        1.88310000       1.00460000      -4.25010000
H        2.29800000      -1.50670000      -7.63240000
