14
Properties=species:S:1:pos:R:3 gdb_129544=T pbc="F F F"
N        0.01630000       1.44830000       0.10030000
C       -0.05640000      -0.01570000      -0.00610000
C       -1.44750000      -0.46450000       0.08860000
C       -2.58560000      -0.84050000       0.15020000
C        0.59360000      -0.57330000      -1.25160000
C        1.64720000      -1.41150000      -1.45100000
N        1.82420000      -1.51580000      -2.81050000
N        0.98280000      -0.82030000      -3.42670000
O        0.14470000      -0.17750000      -2.43960000
H        0.98500000       1.74370000       0.01140000
H       -0.49160000       1.86540000      -0.67490000
H        0.49930000      -0.43110000       0.84420000
H       -3.59390000      -1.17020000       0.20840000
H        2.27090000      -1.93600000      -0.74800000
