16
Properties=species:S:1:pos:R:3 gdb_78966=T pbc="F F F"
O        0.08770000       1.47690000       0.09650000
C        0.01890000       0.07830000       0.03510000
C        0.23980000      -0.67150000       1.36200000
C       -0.93470000      -0.29960000       2.28790000
C       -2.07000000      -0.26870000       1.32990000
N       -1.73030000      -1.55070000       2.04190000
C       -0.74390000      -1.79480000       0.88780000
C       -1.34970000      -0.63340000       0.00980000
O       -2.02720000      -0.71780000      -1.19280000
H       -0.17910000       1.82850000      -0.75920000
H        0.66250000      -0.34400000      -0.75310000
H        1.22690000      -0.84540000       1.78030000
H       -0.92270000       0.19440000       3.25160000
H       -3.00690000       0.25380000       1.48400000
H       -0.48330000      -2.80230000       0.57410000
H       -2.86550000      -1.17100000      -1.04880000
