17
Properties=species:S:1:pos:R:3 gdb_115185=T pbc="F F F"
O        0.01770000       1.22140000      -0.54250000
C       -0.03100000      -0.18110000      -0.39320000
C       -1.30310000      -0.59420000       0.34330000
O       -2.46880000      -0.06830000      -0.34210000
C       -2.89930000      -0.98830000      -1.33810000
C       -2.25300000      -2.31480000      -0.97030000
O       -2.19470000      -3.33020000      -1.61400000
C       -1.55020000      -2.10730000       0.36950000
O       -0.40730000      -2.90430000       0.49600000
H       -0.86300000       1.49090000      -0.83140000
H        0.02380000      -0.69710000      -1.36780000
H        0.84620000      -0.49010000       0.18090000
H       -1.31690000      -0.13400000       1.33370000
H       -3.99340000      -1.05090000      -1.32900000
H       -2.58460000      -0.69430000      -2.34910000
H       -2.28930000      -2.32680000       1.16070000
H       -0.52690000      -3.64550000      -0.11680000
