12
Properties=species:S:1:pos:R:3 gdb_3883=T pbc="F F F"
N       -0.03730000       1.41610000       0.13370000
C        0.01360000       0.02440000       0.02880000
N       -1.05330000      -0.76790000       0.04870000
N       -0.52420000      -1.99160000      -0.00650000
N        0.80740000      -2.05850000      -0.06070000
C        1.17580000      -0.78170000      -0.03920000
N        2.49720000      -0.34170000      -0.14260000
H        0.53810000       1.87040000      -0.56690000
H       -0.98910000       1.75520000       0.06490000
H       -1.09650000      -2.81670000      -0.00760000
H        3.14820000      -1.11450000      -0.07480000
H        2.72080000       0.35510000       0.55930000
