17
Properties=species:S:1:pos:R:3 gdb_39177=T pbc="F F F"
C        0.08790000       1.46050000       0.25710000
C        1.61780000       1.44270000      -0.04470000
C        1.98120000       1.95030000      -1.44490000
O        1.01070000       1.77330000      -2.47930000
C        0.26880000       0.63870000      -2.62020000
C       -0.21990000      -0.17380000      -1.67880000
O        2.31030000      -0.95660000       0.33270000
C        1.52870000      -0.09490000       0.05980000
C        0.00650000      -0.03620000      -0.19540000
H       -0.11760000       1.57780000       1.32310000
H       -0.51330000       2.16450000      -0.31840000
H        2.29520000       1.91180000       0.67480000
H        2.12590000       3.03370000      -1.40530000
H        2.92720000       1.49330000      -1.76620000
H        0.03510000       0.47760000      -3.66860000
H       -0.78500000      -1.03100000      -2.02520000
H       -0.62460000      -0.71880000       0.37550000
