19
Properties=species:S:1:pos:R:3 gdb_27874=T pbc="F F F"
C       -0.02670000       1.50600000       0.05140000
C       -0.00030000       0.00310000      -0.01220000
C        0.04040000      -0.68770000      -1.22280000
C        0.06230000      -2.07830000      -1.17670000
C        0.10630000      -2.92330000      -2.42020000
N        0.04470000      -2.73140000      -0.00600000
C        0.00560000      -1.98800000       1.10370000
C       -0.01420000      -2.71290000       2.42230000
N       -0.01770000      -0.65020000       1.15410000
H       -0.00970000       1.95610000      -0.94390000
H       -0.92440000       1.84430000       0.57830000
H        0.83260000       1.87340000       0.62140000
H        0.05460000      -0.15840000      -2.16880000
H        0.99590000      -3.56100000      -2.41010000
H       -0.76100000      -3.59020000      -2.45250000
H        0.11810000      -2.31340000      -3.32650000
H        0.84630000      -2.41580000       3.03010000
H       -0.91040000      -2.44200000       2.98940000
H        0.00570000      -3.79120000       2.26380000
