20
Properties=species:S:1:pos:R:3 gdb_62668=T pbc="F F F"
C        0.29480000       1.30990000       0.42300000
C       -0.02390000      -0.10910000      -0.03500000
C       -1.39080000      -0.57410000       0.47080000
C        0.66370000      -0.46020000      -1.30690000
N        1.23880000      -0.90330000       0.02270000
C        1.12230000      -2.33080000      -0.46860000
C       -0.19940000      -2.85840000      -1.01520000
C        0.63680000      -1.91630000      -1.82620000
O        1.17150000      -2.22690000      -3.06240000
H        1.29080000       1.61520000       0.09490000
H       -0.44320000       2.01440000       0.02390000
H        0.26550000       1.36630000       1.51610000
H       -2.08870000      -0.80120000      -0.33890000
H       -1.30770000      -1.45160000       1.11550000
H       -1.84100000       0.22260000       1.06950000
H        1.18890000       0.28900000      -1.89570000
H        1.91300000      -3.00500000      -0.16660000
H       -0.07420000      -3.88430000      -1.35440000
H       -1.18200000      -2.64640000      -0.62340000
H        0.45240000      -2.25240000      -3.70400000
