15
Properties=species:S:1:pos:R:3 gdb_18153=T pbc="F F F"
O       -0.27650000       1.47380000      -0.32350000
C       -0.10690000       0.10280000      -0.16420000
C       -1.30820000      -0.75090000       0.09660000
C       -2.50450000      -0.26540000      -0.73990000
N       -1.67910000      -0.42110000      -1.95290000
C       -1.70290000       0.36500000      -3.06380000
O       -2.63360000       1.06470000      -3.39680000
C       -0.51840000      -0.89820000      -1.21810000
H        0.37940000       1.79690000      -0.95070000
H        0.77640000      -0.20110000       0.40030000
H       -1.37460000      -1.43390000       0.93170000
H       -3.35390000      -0.95310000      -0.72960000
H       -2.84250000       0.75840000      -0.56690000
H       -0.77510000       0.24910000      -3.66470000
H        0.10410000      -1.70250000      -1.59310000
