18
Properties=species:S:1:pos:R:3 gdb_56763=T pbc="F F F"
C       -0.14070000       1.59370000       0.19860000
C       -0.05250000       0.05550000       0.09640000
C        0.74860000      -0.51120000       1.18420000
N        1.37020000      -0.96000000       2.04900000
C       -1.42980000      -0.56580000       0.07420000
C       -2.30170000      -0.93310000       1.23300000
C       -1.98150000      -1.96850000       0.16620000
C       -2.73540000      -1.61150000      -1.10870000
O       -2.22640000      -0.24530000      -1.07240000
H        0.85260000       2.04400000       0.13690000
H       -0.75330000       1.96860000      -0.62430000
H       -0.60210000       1.89030000       1.14370000
H        0.44420000      -0.20480000      -0.84720000
H       -1.79000000      -1.09650000       2.17600000
H       -3.29790000      -0.50540000       1.30750000
H       -1.49210000      -2.90740000       0.38520000
H       -2.37020000      -2.12970000      -2.00170000
H       -3.83030000      -1.64340000      -1.07970000
