19
Properties=species:S:1:pos:R:3 gdb_108157=T pbc="F F F"
C       -0.22350000       1.32600000       0.29470000
O        0.21520000       0.01750000      -0.02790000
C        0.87960000      -0.62690000       1.00100000
C        2.31420000      -0.18800000       1.38330000
C        2.61000000      -1.26590000       2.41310000
C        1.70540000      -2.26040000       2.30020000
C        0.48210000      -2.19840000       3.22760000
C       -0.10870000      -1.42520000       1.99540000
C        0.84060000      -2.10210000       1.03920000
H        0.61780000       2.00140000       0.50170000
H       -0.76910000       1.70120000      -0.57400000
H       -0.89080000       1.32060000       1.16750000
H        2.93230000      -0.14360000       0.47550000
H        2.38640000       0.79190000       1.87040000
H        3.04550000      -0.99560000       3.37140000
H       -0.07800000      -3.13020000       3.37170000
H        0.61330000      -1.68430000       4.18430000
H       -1.17170000      -1.27370000       1.82250000
H        0.65870000      -2.80650000       0.23830000
