20
Properties=species:S:1:pos:R:3 gdb_57052=T pbc="F F F"
C       -0.03690000       1.57900000      -0.05260000
C        0.02850000       0.03860000       0.00080000
C        0.82960000      -0.39060000       1.15350000
N        1.44570000      -0.72240000       2.07370000
C       -1.37560000      -0.58600000       0.05780000
C       -2.22440000      -0.46310000      -1.22590000
O       -2.30890000      -1.88990000      -1.37010000
C       -1.55360000      -2.12030000      -0.15350000
C       -0.35730000      -3.02220000      -0.38430000
H        0.96490000       2.01080000      -0.11190000
H       -0.60220000       1.89820000      -0.93230000
H       -0.52910000       1.97700000       0.83920000
H        0.54220000      -0.31830000      -0.90020000
H       -1.88170000      -0.22300000       0.95550000
H       -3.20920000       0.00260000      -1.09730000
H       -1.72440000       0.00630000      -2.08450000
H       -2.20120000      -2.56240000       0.61560000
H        0.30820000      -2.62460000      -1.15590000
H        0.21330000      -3.15900000       0.53900000
H       -0.70790000      -4.00270000      -0.72120000
