17
Properties=species:S:1:pos:R:3 gdb_80640=T pbc="F F F"
O       -0.03490000       1.37800000       0.14300000
C       -0.00790000      -0.01460000       0.02580000
C       -1.40750000      -0.62160000      -0.21050000
C       -1.14660000      -2.06010000      -0.69440000
C       -0.61610000      -1.23490000      -1.88480000
O       -1.63950000      -0.23040000      -1.60510000
C        0.66780000      -0.57000000      -1.31000000
C        1.22450000       0.45590000      -2.16930000
C        1.66790000       1.30720000      -2.89350000
H       -0.41860000       1.71850000      -0.67570000
H        0.48570000      -0.39730000       0.92210000
H       -2.20310000      -0.33290000       0.47530000
H       -0.45600000      -2.69770000      -0.13620000
H       -2.07090000      -2.58460000      -0.93670000
H       -0.59830000      -1.58040000      -2.91730000
H        1.43100000      -1.32090000      -1.08160000
H        2.07070000       2.05540000      -3.53030000
