16
Properties=species:S:1:pos:R:3 gdb_33687=T pbc="F F F"
C       -0.02850000      -1.18130000      -0.14910000
C        0.00290000       0.01560000      -0.02850000
C        0.01840000       1.42370000       0.15440000
C       -1.11220000       2.28600000       0.75690000
C       -0.42700000       3.61240000       1.05240000
C        1.07310000       3.43060000       1.15610000
C        1.21990000       2.31530000       0.14680000
N        0.23560000       2.42980000      -0.96590000
C       -0.86420000       3.26990000      -0.34820000
H       -0.05320000      -2.23610000      -0.26750000
H       -2.02750000       1.92880000       1.20480000
H       -0.96500000       4.36770000       1.61110000
H        1.62550000       4.32870000       0.86010000
H        1.40500000       3.12460000       2.15350000
H        2.18490000       1.91670000      -0.14400000
H       -1.52610000       3.83980000      -0.98470000
