16
Properties=species:S:1:pos:R:3 gdb_7316=T pbc="F F F"
C        0.05580000       1.58930000       0.00880000
C       -0.07110000       0.06090000       0.11700000
N       -1.46080000      -0.36360000       0.04930000
H       -0.97600000      -1.11160000      -1.60690000
C       -2.05770000      -0.68360000       1.12760000
N       -3.33650000      -1.15240000       1.16150000
C        0.71190000      -0.58430000      -1.04450000
O        1.90740000      -0.51180000      -1.14400000
O       -0.06050000      -1.20640000      -1.94610000
H        1.11060000       1.86880000      -0.04210000
H       -0.45090000       1.95080000      -0.89100000
H       -0.40300000       2.07070000       0.87730000
H        0.42270000      -0.26910000       1.04330000
H       -1.57840000      -0.64110000       2.11410000
H       -3.88900000      -1.05960000       0.32330000
H       -3.83520000      -1.14410000       2.03410000
