14
Properties=species:S:1:pos:R:3 gdb_66053=T pbc="F F F"
O        0.02800000       1.42070000      -0.25590000
C        0.03900000       0.03590000      -0.06050000
C        0.02440000      -0.47030000       1.41010000
O       -1.28260000      -1.04600000       1.25300000
C       -1.40270000      -0.59560000      -0.11640000
C       -2.49990000       0.31980000      -0.34860000
C       -3.42920000       1.05370000      -0.54900000
C        1.02090000      -0.62280000      -0.92780000
N        1.81840000      -1.12050000      -1.60040000
H        0.93550000       1.74660000      -0.25240000
H        0.78040000      -1.21630000       1.67500000
H        0.03440000       0.35860000       2.12690000
H       -1.46550000      -1.44930000      -0.80110000
H       -4.24700000       1.70890000      -0.72450000
