14
Properties=species:S:1:pos:R:3 gdb_43817=T pbc="F F F"
O       -0.22740000       0.13960000       0.47470000
C       -0.09740000       1.24130000       0.06540000
O       -1.00710000       2.04000000      -0.56660000
C       -0.06780000       3.14270000      -0.66290000
C       -0.06200000       4.07020000      -1.82020000
C       -0.48590000       4.54550000      -0.43180000
C        1.04040000       2.30170000      -0.02440000
C        1.62100000       2.76980000       1.21800000
N        2.07550000       3.16980000       2.20210000
H        0.89420000       4.39760000      -2.21420000
H       -0.84150000       3.93670000      -2.56190000
H       -1.54230000       4.72320000      -0.26570000
H        0.18290000       5.18980000       0.12870000
H        1.82140000       1.98550000      -0.72160000
