18
Properties=species:S:1:pos:R:3 gdb_62717=T pbc="F F F"
C       -0.07910000       1.53870000       0.05230000
C       -0.02110000       0.03130000      -0.06070000
C       -1.22100000      -0.68180000       0.52760000
C        0.70790000      -0.68020000      -1.18560000
C        1.69700000       0.01480000      -2.04330000
C        2.73270000       0.42740000      -1.29910000
C        2.45420000       0.12170000       0.13040000
O        3.05810000       0.48450000       1.10790000
N        1.25860000      -0.68810000       0.17380000
H        0.71500000       2.03780000      -0.50390000
H       -1.04200000       1.90000000      -0.32200000
H        0.00550000       1.83410000       1.10340000
H       -2.13700000      -0.39080000       0.00230000
H       -1.10310000      -1.76550000       0.46260000
H       -1.33720000      -0.41620000       1.58360000
H        0.27870000      -1.61260000      -1.54680000
H        1.58180000       0.12410000      -3.11480000
H        3.60230000       0.98720000      -1.61570000
