15
Properties=species:S:1:pos:R:3 gdb_69762=T pbc="F F F"
O       -0.10920000       1.43550000       0.04020000
C       -0.01480000       0.06290000       0.03170000
C       -0.25170000      -0.78010000      -1.18090000
C       -1.15470000      -0.95710000       0.02340000
C       -0.44120000      -1.74780000       1.13480000
O        0.50280000      -2.79380000       0.70640000
C        1.57420000      -1.91770000       0.77390000
O        2.71680000      -2.16370000       0.56120000
C        0.69900000      -0.72670000       1.17930000
H        0.57800000       1.79520000      -0.53230000
H       -0.73040000      -0.24000000      -1.99160000
H        0.42770000      -1.56590000      -1.49620000
H       -2.22470000      -0.81010000      -0.04090000
H       -1.01640000      -2.06270000       2.00210000
H        0.95880000      -0.14470000       2.05990000
