13
Properties=species:S:1:pos:R:3 gdb_138=T pbc="F F F"
O       -0.08890000       1.42630000       0.01040000
C        0.01430000       0.01060000       0.00190000
C       -1.39790000      -0.55800000       0.01240000
C       -1.42190000      -2.08020000       0.00450000
O       -2.78040000      -2.49180000       0.01500000
H        0.80030000       1.79200000       0.00420000
H        0.55480000      -0.34330000      -0.89200000
H        0.57170000      -0.35270000       0.88150000
H       -1.92630000      -0.19390000       0.90000000
H       -1.94320000      -0.18450000      -0.86090000
H       -0.89860000      -2.45920000      -0.88930000
H       -0.88190000      -2.46870000       0.88410000
H       -2.80270000      -3.45310000       0.01070000
