10
Properties=species:S:1:pos:R:3 gdb_3906=T pbc="F F F"
O       -0.00420000      -0.05650000       0.00320000
C        0.03400000       1.14250000       0.00920000
O       -1.18340000       1.83160000       0.02820000
N       -1.30110000       3.20760000       0.03650000
C       -0.20640000       3.88940000       0.02570000
C        1.11170000       3.31800000       0.00560000
C        1.22770000       1.97790000      -0.00250000
H       -0.35510000       4.96440000       0.03290000
H        1.97730000       3.97180000      -0.00250000
H        2.17710000       1.45670000      -0.01760000
