14
Properties=species:S:1:pos:R:3 gdb_11016=T pbc="F F F"
C        0.02570000       1.51540000      -0.06290000
C       -0.05560000       0.02710000       0.11290000
C       -1.30890000      -0.74690000      -0.26590000
O       -1.26220000      -1.98050000       0.46910000
C       -0.25880000      -1.98350000       1.39500000
O       -0.14400000      -2.83320000       2.22720000
C        0.59810000      -0.76550000       1.16240000
O        1.11050000      -0.74630000      -0.18430000
H        0.99850000       1.88260000       0.27110000
H       -0.09640000       1.78550000      -1.11730000
H       -0.75880000       2.01970000       0.50970000
H       -2.21900000      -0.20570000       0.01540000
H       -1.34230000      -0.98110000      -1.33390000
H        1.24410000      -0.38670000       1.94580000
