18
Properties=species:S:1:pos:R:3 gdb_33247=T pbc="F F F"
C       -0.01490000       1.38060000      -0.02980000
O        0.05770000      -0.02430000      -0.03620000
C        0.64410000      -0.54750000       1.13440000
C        0.68470000      -2.07080000       1.00310000
C        1.32950000      -2.72300000       2.18090000
C        0.80620000      -3.56230000       3.10780000
O        1.79020000      -3.89160000       4.00070000
C        2.87360000      -3.21780000       3.55780000
N        2.67520000      -2.51220000       2.49490000
H        0.98280000       1.84190000       0.04390000
H       -0.47790000       1.68960000      -0.97020000
H       -0.62630000       1.75550000       0.80690000
H        1.66490000      -0.15740000       1.27230000
H        0.06020000      -0.25790000       2.02500000
H       -0.33510000      -2.44770000       0.87740000
H        1.23820000      -2.31950000       0.09070000
H       -0.16170000      -4.00230000       3.27450000
H        3.78360000      -3.33570000       4.12520000
