21
Properties=species:S:1:pos:R:3 gdb_87806=T pbc="F F F"
C       -0.21960000       1.45120000      -0.01720000
C       -0.02850000      -0.04190000       0.08420000
N        1.35950000      -0.54530000      -0.07900000
C        0.68130000      -0.68180000       1.20890000
C        1.28390000      -0.11280000       2.51830000
C        0.94600000      -1.45700000       3.18430000
C        0.36970000      -1.99040000       1.91130000
N       -0.50910000      -1.65120000       3.05440000
C       -0.99040000      -2.83460000       3.76420000
H        0.61410000       1.97830000       0.45410000
H       -0.27030000       1.76970000      -1.06410000
H       -1.14800000       1.75680000       0.47710000
H       -0.81960000      -0.63720000      -0.37140000
H        1.35880000      -1.43400000      -0.57550000
H        2.35710000       0.06170000       2.41300000
H        0.79700000       0.76200000       2.95630000
H        1.49980000      -1.97410000       3.95860000
H        0.37620000      -2.99440000       1.50000000
H       -0.27130000      -3.67160000       3.78270000
H       -1.22070000      -2.56100000       4.79880000
H       -1.91210000      -3.18750000       3.29080000
