18
Properties=species:S:1:pos:R:3 gdb_60508=T pbc="F F F"
C        0.02750000       1.51650000      -0.04470000
N       -0.02360000       0.06760000       0.00890000
C       -0.02790000      -0.60440000       1.28570000
C        0.38540000       0.08080000       2.55830000
C       -1.06140000      -0.31200000       2.34430000
C       -0.04470000      -0.73040000      -1.10650000
O       -0.08320000      -1.95040000      -1.06260000
C       -0.01050000      -0.04900000      -2.39530000
C        0.01610000       0.40130000      -3.51070000
H        0.98820000       1.89680000       0.32110000
H       -0.10620000       1.84380000      -1.07440000
H       -0.77290000       1.95780000       0.56020000
H        0.25530000      -1.64000000       1.15920000
H        0.98900000      -0.48750000       3.25720000
H        0.61670000       1.13910000       2.53860000
H       -1.76880000       0.49020000       2.16380000
H       -1.47190000      -1.15180000       2.89320000
H        0.03930000       0.79590000      -4.49720000
