21
Properties=species:S:1:pos:R:3 gdb_122307=T pbc="F F F"
C       -0.79840000       1.15430000      -0.32200000
C        0.20110000       0.04400000      -0.04770000
O        0.43960000      -0.65560000      -1.25340000
C        1.36700000      -1.70940000      -1.10970000
C        1.60600000      -2.31460000      -2.45520000
C        1.95220000      -1.61190000      -3.77800000
C        1.26860000      -2.80740000      -4.53300000
C        0.96450000      -3.43490000      -3.16620000
O        2.22070000      -3.60800000      -2.49120000
H       -0.40720000       1.84530000      -1.07410000
H       -1.73980000       0.74000000      -0.69400000
H       -1.00380000       1.71670000       0.59360000
H        1.14600000       0.45930000       0.34240000
H       -0.18670000      -0.64610000       0.72070000
H        2.31820000      -1.33300000      -0.69270000
H        0.99610000      -2.48690000      -0.42250000
H        1.41300000      -0.67190000      -3.90460000
H        3.01940000      -1.45790000      -3.95510000
H        0.37110000      -2.50160000      -5.07530000
H        1.90490000      -3.40950000      -5.18550000
H        0.15470000      -4.09320000      -2.87190000
