16
Properties=species:S:1:pos:R:3 gdb_97837=T pbc="F F F"
O        0.11020000       1.49620000       0.56820000
C        0.09640000       0.10500000       0.28110000
C       -1.24510000      -0.44410000       0.09280000
C       -2.36080000      -0.86000000      -0.09410000
C       -3.68940000      -1.40150000      -0.27710000
N       -4.11850000      -1.71390000      -1.67610000
C       -4.62950000      -3.06040000      -1.31420000
C       -3.94320000      -2.91080000       0.04920000
O       -3.68540000      -3.62590000       0.96250000
H       -0.39150000       1.93820000      -0.12460000
H        0.70890000      -0.12980000      -0.60420000
H        0.58000000      -0.38060000       1.13590000
H       -4.42300000      -0.80180000       0.28610000
H       -4.82470000      -1.08030000      -2.03140000
H       -5.71980000      -3.15530000      -1.20990000
H       -4.26560000      -3.87310000      -1.95170000
