15
Properties=species:S:1:pos:R:3 gdb_9941=T pbc="F F F"
N       -0.03330000       1.45780000      -0.05020000
C       -0.01860000       0.02030000      -0.01160000
C       -1.33310000      -0.71100000      -0.02130000
N       -2.51570000       0.07730000      -0.21560000
C       -0.42600000      -0.75230000      -1.27620000
O       -0.87630000       0.02400000      -2.33510000
C        0.25020000      -1.96830000      -1.63120000
N        0.81110000      -2.95360000      -1.86600000
H        0.89730000       1.81510000       0.13470000
H       -0.27840000       1.75150000      -0.99480000
H        0.76300000      -0.41520000       0.60070000
H       -1.41200000      -1.62270000       0.56260000
H       -3.35760000      -0.42630000       0.02780000
H       -2.46360000       0.94040000       0.31820000
H       -1.81030000       0.21420000      -2.11110000
