20
Properties=species:S:1:pos:R:3 gdb_12024=T pbc="F F F"
C       -0.11040000       1.56810000      -0.08680000
C        0.00110000       0.06440000       0.02080000
O       -1.16760000      -0.61710000      -0.37140000
C        1.31580000      -0.63680000      -0.24010000
C        0.71470000      -0.61150000       1.15780000
C        1.36940000       0.12630000       2.28140000
C        0.71790000       0.17400000       3.64300000
C        1.97170000      -0.63900000       3.43540000
H        0.79910000       2.07090000       0.25130000
H       -0.28190000       1.86610000      -1.12890000
H       -0.95120000       1.93390000       0.51110000
H       -1.27550000      -0.49000000      -1.32100000
H        1.28470000      -1.57270000      -0.78700000
H        2.19670000      -0.02840000      -0.42310000
H        0.23650000      -1.54100000       1.45720000
H        1.91020000       1.02120000       1.98660000
H        0.78580000       1.09150000       4.21720000
H       -0.21740000      -0.36090000       3.77100000
H        1.87970000      -1.72020000       3.42490000
H        2.89910000      -0.27810000       3.86650000
