21
Properties=species:S:1:pos:R:3 gdb_115678=T pbc="F F F"
C       -0.19450000       1.63300000       0.18650000
C       -0.07440000       0.11460000       0.01350000
C        0.75690000      -0.52410000       1.11980000
C        0.15260000      -0.59660000       2.54110000
O        0.41640000      -2.01070000       2.63300000
C        0.83460000      -2.08320000       1.26760000
C       -0.13380000      -2.86810000       0.38270000
C        0.44540000      -3.39130000      -0.91950000
O       -1.28530000      -3.04040000       0.70250000
H        0.78950000       2.11460000       0.16770000
H       -0.79790000       2.07380000      -0.61230000
H       -0.67030000       1.88790000       1.13970000
H       -1.07340000      -0.33590000      -0.00030000
H        0.38110000      -0.10340000      -0.96130000
H        1.76130000      -0.09040000       1.12740000
H        0.66500000      -0.03180000       3.32770000
H       -0.92380000      -0.38550000       2.58500000
H        1.84490000      -2.50410000       1.17170000
H        1.06120000      -2.63240000      -1.41450000
H        1.10250000      -4.24370000      -0.70770000
H       -0.35790000      -3.71570000      -1.58210000
