21
Properties=species:S:1:pos:R:3 gdb_112252=T pbc="F F F"
C        0.04550000       1.73840000      -0.16900000
C        0.38870000       0.26920000       0.10610000
C        0.67170000      -0.50500000      -1.18070000
C        0.98780000      -2.04480000      -1.20090000
C        0.49990000      -2.81870000       0.01190000
O        0.67100000      -4.19940000      -0.27160000
C        0.05510000      -2.21900000      -2.43930000
C       -0.48550000      -0.81140000      -2.15060000
O       -1.48410000      -0.22240000      -2.45560000
H        0.88030000       2.25190000      -0.65920000
H       -0.82580000       1.81250000      -0.82460000
H       -0.17410000       2.27130000       0.76110000
H        1.26350000       0.20590000       0.76550000
H       -0.44150000      -0.20150000       0.64590000
H        1.45150000       0.01650000      -1.75340000
H        2.03650000      -2.29130000      -1.37870000
H        1.07040000      -2.52000000       0.90510000
H       -0.56000000      -2.58420000       0.20720000
H        0.34420000      -4.70470000       0.47850000
H        0.59280000      -2.25880000      -3.39180000
H       -0.66420000      -3.04070000      -2.41050000
