18
Properties=species:S:1:pos:R:3 gdb_126804=T pbc="F F F"
C       -0.02390000       1.54080000      -0.05090000
C       -0.03890000       0.01600000       0.07520000
N       -1.37870000      -0.54020000      -0.00310000
N       -2.06350000      -0.80380000       1.12860000
C       -3.27090000      -1.19980000       0.72070000
C       -3.35910000      -1.19650000      -0.68310000
O       -4.37780000      -1.55360000      -1.52690000
C       -2.12140000      -0.76380000      -1.12490000
N       -1.63860000      -0.49770000      -2.41870000
H        0.99980000       1.91650000       0.04380000
H       -0.41790000       1.84880000      -1.02270000
H       -0.63370000       1.99270000       0.73610000
H        0.57410000      -0.43730000      -0.70980000
H        0.36010000      -0.30160000       1.04080000
H       -4.02120000      -1.48430000       1.44510000
H       -5.20330000      -1.54490000      -1.03430000
H       -2.41870000      -0.46260000      -3.06610000
H       -1.00120000      -1.21650000      -2.75090000
