21
Properties=species:S:1:pos:R:3 gdb_107569=T pbc="F F F"
O       -0.05890000       1.35530000       0.63770000
C        0.04780000       0.00650000       0.19440000
C       -1.33510000      -0.50130000      -0.12880000
C       -2.16050000      -1.03560000       1.01860000
C       -1.57880000      -1.98950000       0.00380000
C       -2.48660000      -2.71030000      -0.97850000
C       -3.38770000      -1.78970000      -1.75600000
C       -3.19260000      -0.47700000      -1.86550000
C       -2.04830000       0.26650000      -1.23490000
H        0.82950000       1.71280000       0.72540000
H        0.68570000      -0.05890000      -0.70300000
H        0.50440000      -0.62960000       0.96990000
H       -1.72690000      -1.00960000       2.01250000
H       -3.23130000      -0.86240000       0.99040000
H       -0.73450000      -2.58390000       0.34440000
H       -1.87070000      -3.28660000      -1.68550000
H       -3.08990000      -3.45950000      -0.44650000
H       -4.23100000      -2.25160000      -2.26380000
H       -3.87940000       0.11710000      -2.46400000
H       -2.39070000       1.23340000      -0.84650000
H       -1.31710000       0.51940000      -2.01900000
