21
Properties=species:S:1:pos:R:3 gdb_68597=T pbc="F F F"
C       -0.05680000       1.51530000       0.04770000
C       -0.01310000       0.00790000       0.02340000
C        0.31550000      -0.81360000      -1.27240000
C       -0.41890000      -1.96550000      -0.51810000
C        0.52910000      -2.22390000       0.67020000
C        0.83540000      -0.74030000       1.07670000
C       -1.29920000      -0.84480000       0.04940000
C       -2.53370000      -0.79600000       0.82210000
O       -2.49270000      -0.41260000      -0.57220000
H        0.92290000       1.94380000      -0.19120000
H       -0.78320000       1.89380000      -0.67780000
H       -0.34520000       1.88760000       1.03790000
H       -0.24210000      -0.45750000      -2.14060000
H        1.37030000      -0.96240000      -1.52310000
H       -0.84720000      -2.82200000      -1.03740000
H        0.04780000      -2.78840000       1.47390000
H        1.42660000      -2.77010000       0.36690000
H        1.89760000      -0.49020000       0.99440000
H        0.51650000      -0.51010000       2.09810000
H       -3.08730000      -1.71070000       1.03130000
H       -2.71590000       0.02260000       1.51760000
