19
Properties=species:S:1:pos:R:3 gdb_95729=T pbc="F F F"
O       -0.26390000       1.55470000      -0.22600000
C        0.03470000       0.17780000      -0.04340000
C       -1.15960000      -0.41040000       0.72060000
N       -1.13150000      -1.84170000       0.96570000
C       -1.09210000      -2.70760000      -0.20690000
C        0.26540000      -2.86320000      -0.87200000
N        0.80990000      -4.00580000      -0.94320000
O        0.91210000      -1.75360000      -1.33840000
C        0.25380000      -0.48840000      -1.41040000
H        0.52270000       1.99980000      -0.55700000
H        0.95370000       0.03950000       0.54930000
H       -1.24810000       0.10930000       1.67970000
H       -2.06650000      -0.17120000       0.14900000
H       -0.39910000      -2.09460000       1.61950000
H       -1.39680000      -3.71840000       0.07250000
H       -1.82940000      -2.33310000      -0.92810000
H        1.71720000      -3.93290000      -1.41020000
H       -0.69420000      -0.56160000      -1.95780000
H        0.92850000       0.13480000      -2.00550000
