15
Properties=species:S:1:pos:R:3 gdb_46339=T pbc="F F F"
O       -0.07840000      -0.01520000       0.01190000
C       -0.08060000       1.17390000       0.05990000
C       -1.16000000       2.24960000       0.23870000
C       -0.03400000       3.26560000       0.58500000
C        1.05870000       2.25400000       0.08130000
C        2.23810000       2.01350000       0.86820000
C        3.21230000       1.79450000       1.55390000
C        4.30700000       1.55390000       2.32350000
C        5.27980000       1.34210000       3.00730000
H       -1.67260000       2.46250000      -0.70520000
H       -1.91270000       2.03730000       1.00100000
H       -0.05880000       4.22030000       0.06040000
H        0.05350000       3.44390000       1.65720000
H        1.32480000       2.47180000      -0.96210000
H        6.13460000       1.15240000       3.60770000
