17
Properties=species:S:1:pos:R:3 gdb_51693=T pbc="F F F"
N       -0.39140000       1.12490000      -0.67630000
C       -0.19670000      -0.04290000      -0.24790000
O       -1.23400000      -0.91490000      -0.18820000
C       -0.92260000      -2.23740000       0.20370000
C       -2.23290000      -3.00700000       0.36760000
C       -2.47140000      -3.52930000      -1.05640000
C       -1.07150000      -3.64210000      -1.61800000
N       -0.71510000      -4.29950000      -2.62940000
O       -0.20800000      -2.90670000      -0.82510000
H        0.47440000       1.65910000      -0.63880000
H        0.75060000      -0.46470000       0.11090000
H       -0.27480000      -2.22520000       1.08600000
H       -2.07940000      -3.83250000       1.06770000
H       -3.02350000      -2.36180000       0.74980000
H       -2.99100000      -4.48570000      -1.10890000
H       -3.03490000      -2.80530000      -1.65320000
H        0.28600000      -4.19170000      -2.80010000
