17
Properties=species:S:1:pos:R:3 gdb_17332=T pbc="F F F"
C        0.09650000       1.50810000       0.02600000
C       -0.02100000       0.00430000       0.00240000
C       -0.70120000      -0.77870000       1.06890000
N        0.76780000      -0.78760000       0.97990000
C        1.37830000      -1.93510000       0.27260000
C        0.95290000      -1.86740000      -1.18620000
O       -0.45940000      -2.01250000      -1.38960000
C        0.08760000      -0.68840000      -1.34260000
H        0.98380000       1.84670000      -0.52130000
H       -0.78180000       1.97740000      -0.43130000
H        0.18170000       1.86440000       1.05510000
H       -1.08900000      -0.26550000       1.94600000
H       -1.24950000      -1.66440000       0.76490000
H        2.46840000      -1.83860000       0.33990000
H        1.09610000      -2.88190000       0.74510000
H        1.58460000      -2.27030000      -1.97570000
H        0.00790000      -0.11080000      -2.25970000
