21
Properties=species:S:1:pos:R:3 gdb_26404=T pbc="F F F"
C       -0.09270000       1.46430000       0.34760000
C       -0.05240000      -0.02880000      -0.00120000
C       -1.47020000      -0.60630000      -0.09970000
C        0.73120000      -0.30210000      -1.30930000
C        2.20090000      -0.02150000      -1.23540000
C        3.22470000      -0.91590000      -1.04150000
N        4.38150000      -0.16590000      -1.03340000
C        4.01770000       1.13210000      -1.22340000
N        2.71750000       1.25640000      -1.34970000
H        0.91070000       1.89260000       0.39690000
H       -0.64930000       2.02340000      -0.41460000
H       -0.59150000       1.62600000       1.30940000
H        0.47460000      -0.55540000       0.80710000
H       -2.02930000      -0.13360000      -0.91650000
H       -1.45450000      -1.68530000      -0.28910000
H       -2.03120000      -0.43570000       0.82520000
H        0.59010000      -1.35370000      -1.58670000
H        0.29310000       0.29930000      -2.11590000
H        3.23980000      -1.98600000      -0.91690000
H        5.31790000      -0.51650000      -0.92430000
H        4.74010000       1.93370000      -1.26600000
