16
Properties=species:S:1:pos:R:3 gdb_37494=T pbc="F F F"
C       -0.04800000       1.58680000      -0.02500000
C        1.48910000       1.44870000       0.04290000
C        1.32140000       0.07490000       0.78370000
C       -0.04310000       0.04500000       0.01640000
C        0.70440000      -0.43530000      -1.24790000
N        1.44140000      -1.79710000      -0.86350000
C        2.06680000      -0.88090000      -0.22770000
O        3.04460000      -0.06590000      -0.88860000
C        1.92090000       0.75260000      -1.25580000
H       -0.46850000       2.02870000       0.88090000
H       -0.47910000       2.07420000      -0.90730000
H        2.14230000       2.23860000       0.40740000
H        1.42140000      -0.04150000       1.85660000
H       -0.89560000      -0.55170000       0.32920000
H        0.24330000      -0.65690000      -2.20470000
H        2.10540000       1.29870000      -2.17750000
