14
Properties=species:S:1:pos:R:3 gdb_30892=T pbc="F F F"
C       -0.33290000       1.22720000       0.01860000
O        0.69840000       0.23250000       0.12230000
C        0.86880000      -0.52500000      -0.95850000
C        0.57700000      -1.79960000      -1.30180000
O       -0.10190000      -2.71900000      -0.58700000
N        1.09080000      -2.09090000      -2.56180000
C        1.65690000      -0.97960000      -2.91330000
O        2.29800000      -0.70980000      -4.04850000
O        1.59210000       0.02210000      -2.04190000
H       -0.07970000       1.97010000      -0.74530000
H       -1.29330000       0.76030000      -0.22540000
H       -0.39150000       1.71090000       0.99480000
H       -0.09740000      -3.53090000      -1.10690000
H        2.26960000      -1.51360000      -4.58300000
