19
Properties=species:S:1:pos:R:3 gdb_36520=T pbc="F F F"
C       -0.02620000      -1.24920000      -0.01910000
C       -0.01320000      -0.04890000       0.03210000
C        0.00700000       1.40780000       0.06940000
C        1.42040000       2.00090000       0.02830000
C        1.42410000       3.52780000      -0.11280000
C        2.85730000       4.03900000       0.06250000
O        3.41850000       3.54530000       1.27080000
C        3.37650000       2.14390000       1.30690000
O        2.07000000       1.63560000       1.24190000
H       -0.03940000      -2.31010000      -0.05330000
H       -0.56190000       1.80790000      -0.77940000
H       -0.48620000       1.76800000       0.98050000
H        1.97050000       1.55840000      -0.82000000
H        1.03000000       3.82660000      -1.09070000
H        0.78470000       3.96260000       0.66370000
H        3.47630000       3.72230000      -0.79470000
H        2.89420000       5.12950000       0.12210000
H        3.97920000       1.72980000       0.47500000
H        3.79270000       1.83350000       2.26700000
