18
Properties=species:S:1:pos:R:3 gdb_120240=T pbc="F F F"
C       -0.08240000       1.50700000       0.03980000
C       -0.13710000       0.01750000      -0.24690000
O       -1.33260000      -0.50120000       0.33010000
C       -1.48960000      -1.86720000       0.14470000
C       -2.75830000      -2.49900000       0.71560000
N       -3.88470000      -1.96180000      -0.05150000
C       -3.11380000      -3.13300000      -0.60470000
C       -1.90850000      -2.48380000      -1.24750000
O       -1.39190000      -2.52740000      -2.32490000
H        0.82910000       1.94060000      -0.38200000
H       -0.94520000       2.01340000      -0.40150000
H       -0.09000000       1.69200000       1.11780000
H       -0.12580000      -0.17690000      -1.32760000
H        0.73640000      -0.49690000       0.18830000
H       -0.59810000      -2.43320000       0.47470000
H       -2.88430000      -2.92030000       1.70420000
H       -4.74080000      -2.35550000       0.34050000
H       -3.60460000      -4.07210000      -0.82320000
