21
Properties=species:S:1:pos:R:3 gdb_74042=T pbc="F F F"
C       -0.03230000       1.45790000      -0.09880000
C       -0.02790000      -0.03250000       0.00580000
C       -1.04070000      -0.88090000       0.16010000
C       -2.53860000      -0.85630000       0.05320000
C       -2.87500000      -2.29760000      -0.47160000
C       -1.52420000      -2.93310000      -0.89750000
C       -0.54100000      -2.29760000       0.09790000
O        0.82400000      -2.20910000      -0.28060000
C        1.24340000      -0.85050000      -0.13160000
H        0.51830000       1.91990000       0.73100000
H        0.45620000       1.79380000      -1.02240000
H       -1.04990000       1.85740000      -0.08410000
H       -3.03450000      -0.66510000       1.01160000
H       -2.87870000      -0.07550000      -0.63500000
H       -3.32240000      -2.88630000       0.33610000
H       -3.60070000      -2.28280000      -1.28820000
H       -1.54560000      -4.02570000      -0.87470000
H       -1.24390000      -2.61560000      -1.90770000
H       -0.62160000      -2.81660000       1.07090000
H        1.82720000      -0.55460000      -1.01590000
H        1.91080000      -0.74810000       0.74230000
