18
Properties=species:S:1:pos:R:3 gdb_29576=T pbc="F F F"
C        0.27630000       1.42530000       0.22730000
C        0.09310000      -0.04900000       0.05590000
C        0.04790000      -0.76480000      -1.09820000
O       -0.15670000      -2.08570000      -0.85780000
C       -0.23800000      -2.23050000       0.49620000
C       -0.09480000      -1.02070000       1.10760000
N       -0.19800000      -0.70660000       2.47290000
C        0.27730000      -1.67460000       3.45170000
C        1.02660000      -0.40780000       3.22110000
H        1.20210000       1.66150000       0.76510000
H        0.31600000       1.93250000      -0.74060000
H       -0.54620000       1.85920000       0.80630000
H        0.13880000      -0.48430000      -2.13540000
H       -0.42920000      -3.22620000       0.85800000
H       -0.34460000      -1.79370000       4.33370000
H        0.73310000      -2.58930000       3.07900000
H        1.97290000      -0.48410000       2.69080000
H        0.95220000       0.41290000       3.92790000
