14
Properties=species:S:1:pos:R:3 gdb_4436=T pbc="F F F"
C        0.17860000       1.50800000       0.05860000
C       -0.01290000       0.04190000       0.01760000
C       -1.09440000      -0.73550000       0.03990000
N       -2.44430000      -0.43090000       0.11120000
O       -0.66810000      -2.08060000      -0.02500000
C        0.69730000      -2.05960000      -0.08590000
N        1.49770000      -3.02720000      -0.15490000
O        1.11540000      -0.75940000      -0.06070000
H        0.78120000       1.80160000       0.92520000
H        0.69840000       1.86200000      -0.83850000
H       -0.79550000       1.99590000       0.12100000
H       -2.96050000      -0.75660000      -0.70050000
H       -2.88660000      -0.81400000       0.94120000
H        0.98820000      -3.90700000      -0.16180000
