18
Properties=species:S:1:pos:R:3 gdb_91609=T pbc="F F F"
C       -0.19930000       1.45890000      -0.01200000
N        0.06410000       0.02840000      -0.01220000
C        0.82540000      -0.48420000      -1.17620000
C        1.85930000      -1.39230000      -0.49730000
C        1.07640000      -1.93550000       0.71040000
C        0.75800000      -0.51220000       1.17860000
C        2.17360000       0.08590000       1.19260000
O        2.66810000       0.93850000       1.86940000
O        2.82170000      -0.50300000       0.13050000
H        0.71050000       2.08280000      -0.02350000
H       -0.79930000       1.71240000      -0.89120000
H       -0.78000000       1.72240000       0.87740000
H        0.17660000      -1.03090000      -1.87100000
H        1.33640000       0.31430000      -1.72870000
H        2.39900000      -2.08980000      -1.13460000
H        0.18460000      -2.50340000       0.44140000
H        1.70800000      -2.49950000       1.39910000
H        0.19560000      -0.35740000       2.09700000
