19
Properties=species:S:1:pos:R:3 gdb_63268=T pbc="F F F"
C       -0.30940000       1.55570000       0.06530000
C       -0.00770000       0.06750000       0.06830000
C       -1.15390000      -0.76450000      -0.47810000
O        1.22670000      -0.19250000      -0.73220000
C        1.86810000      -0.76810000       0.31990000
O        2.94500000      -1.27900000       0.34450000
C        0.72280000      -0.53110000       1.32060000
C        1.05830000       0.38060000       2.49270000
O        0.10940000      -1.72560000       1.76360000
H        0.56430000       2.14810000       0.34390000
H       -0.62370000       1.86820000      -0.93480000
H       -1.12250000       1.78220000       0.76200000
H       -1.40050000      -0.43180000      -1.49060000
H       -0.89620000      -1.82310000      -0.50050000
H       -2.04030000      -0.64430000       0.15190000
H        1.54130000       1.30870000       2.17870000
H        0.15010000       0.62170000       3.05270000
H        1.75020000      -0.13810000       3.16460000
H        0.77960000      -2.24430000       2.22350000
