18
Properties=species:S:1:pos:R:3 gdb_98567=T pbc="F F F"
C       -0.02470000       1.43570000       0.06610000
N        0.07920000      -0.00760000      -0.01650000
C        0.59390000      -0.64430000      -1.11290000
O        1.00200000      -0.04770000      -2.09700000
C        0.62020000      -2.12940000      -1.01710000
C        1.08180000      -2.92710000      -1.97890000
C        0.96370000      -4.35860000      -1.56270000
O        0.38750000      -4.32580000      -0.25740000
C        0.14820000      -2.98100000       0.13960000
H        0.55990000       1.83040000       0.90470000
H        0.36900000       1.84170000      -0.86600000
H       -1.06640000       1.75460000       0.18480000
H       -0.24140000      -0.55640000       0.76340000
H        1.48410000      -2.59020000      -2.92480000
H        0.32140000      -4.94080000      -2.24250000
H        1.94020000      -4.86740000      -1.52930000
H        0.69700000      -2.76700000       1.07190000
H       -0.92490000      -2.84310000       0.35360000
