19
Properties=species:S:1:pos:R:3 gdb_41405=T pbc="F F F"
C        0.02290000       1.54100000       0.19080000
C        1.54350000       1.61790000      -0.15010000
C        1.60580000       0.11670000       0.12670000
O        2.51940000      -0.78620000      -0.49520000
C        2.67360000      -1.54310000       0.73200000
C        1.84940000      -0.49200000       1.52200000
O        0.62250000      -0.85550000       2.10730000
C       -0.37970000      -0.94440000       1.08270000
C        0.06790000      -0.00320000      -0.03080000
H       -0.18360000       1.79680000       1.23320000
H       -0.65290000       2.10500000      -0.45340000
H        1.70420000       1.82620000      -1.21190000
H        2.18570000       2.27430000       0.44270000
H        2.20670000      -2.53360000       0.67510000
H        3.72700000      -1.64810000       1.01160000
H        2.42110000       0.08170000       2.25420000
H       -0.45510000      -1.97590000       0.70790000
H       -1.33590000      -0.67810000       1.54370000
H       -0.26920000      -0.30390000      -1.02390000
