15
Properties=species:S:1:pos:R:3 gdb_53866=T pbc="F F F"
N       -0.01980000       1.31510000       0.00800000
C        0.07660000      -0.03080000       0.00080000
O        1.10220000      -0.68320000      -0.01230000
C       -1.30860000      -0.71850000       0.01050000
O       -2.32640000      -0.06360000       0.02360000
C       -1.27950000      -2.22810000       0.00230000
C       -2.69520000      -2.82190000       0.01280000
C       -2.67960000      -4.28210000       0.00500000
N       -2.65680000      -5.43720000      -0.00140000
H        0.81310000       1.87930000       0.00300000
H       -0.93240000       1.74100000       0.01900000
H       -0.70550000      -2.55770000      -0.87100000
H       -0.68880000      -2.56680000       0.86090000
H       -3.24330000      -2.47440000       0.89440000
H       -3.26010000      -2.46520000      -0.85430000
