17
Properties=species:S:1:pos:R:3 gdb_25592=T pbc="F F F"
N       -0.42920000       0.92210000       0.79640000
C       -0.66010000      -0.06780000       0.04740000
O       -0.35870000      -1.31340000       0.46290000
C       -0.79300000      -2.38120000      -0.38590000
C       -2.24310000      -2.70790000      -0.19370000
C       -3.00610000      -2.38830000       0.90810000
N       -4.26430000      -2.89370000       0.70560000
C       -4.32240000      -3.53370000      -0.50500000
C       -3.08200000      -3.43480000      -1.08960000
H       -0.68630000       1.78270000       0.31730000
H       -1.08750000      -0.03570000      -0.96440000
H       -0.58390000      -2.13630000      -1.43730000
H       -0.14650000      -3.22350000      -0.11830000
H       -2.75120000      -1.84160000       1.80060000
H       -5.03420000      -2.78970000       1.34270000
H       -5.23410000      -3.99460000      -0.84910000
H       -2.80210000      -3.83740000      -2.05160000
