19
Properties=species:S:1:pos:R:3 gdb_68764=T pbc="F F F"
C       -0.15770000       1.50030000      -0.00350000
C        0.12630000       0.02380000      -0.01420000
C        0.30750000      -0.70140000      -1.34630000
C        0.83940000      -2.10050000      -0.97150000
C        1.46120000      -1.93170000       0.41780000
O        2.32870000      -2.60890000       0.90880000
C        0.83960000      -0.70980000       1.06070000
C        1.40230000      -0.17170000       2.34090000
O       -0.60400000      -0.78440000       0.91700000
H        0.64680000       2.05270000      -0.49970000
H       -1.08870000       1.70810000      -0.54250000
H       -0.26690000       1.87700000       1.01540000
H       -0.63360000      -0.73550000      -1.90420000
H        1.03360000      -0.15780000      -1.96110000
H        0.02790000      -2.83120000      -0.89720000
H        1.57880000      -2.49890000      -1.66850000
H        2.44670000       0.12440000       2.20410000
H        0.83080000       0.68860000       2.69440000
H        1.38040000      -0.94710000       3.11230000
