17
Properties=species:S:1:pos:R:3 gdb_44275=T pbc="F F F"
O        0.01980000      -0.03300000      -0.32910000
C       -0.02620000       1.14480000      -0.04590000
C       -1.33440000       1.87040000       0.21070000
C       -1.13840000       3.33190000       0.54680000
C        0.00660000       3.84830000       1.38180000
C       -0.08770000       4.20120000      -0.09780000
C        1.24360000       3.44570000      -0.35060000
C        1.33640000       3.09820000       1.10610000
C        1.19210000       1.98040000       0.07590000
H       -1.96350000       1.75370000      -0.68010000
H       -1.85490000       1.34770000       1.02230000
H       -2.06210000       3.87510000       0.73520000
H       -0.13810000       4.48940000       2.24130000
H       -0.31620000       5.15570000      -0.55290000
H        2.01600000       3.78890000      -1.02580000
H        2.19380000       3.12310000       1.76530000
H        2.11120000       1.43440000      -0.11280000
