19
Properties=species:S:1:pos:R:3 gdb_90530=T pbc="F F F"
C        0.51700000       1.52690000      -0.37840000
C        0.05900000       0.13540000       0.00380000
O        0.77450000      -0.91800000      -0.70670000
C        1.02880000      -1.63280000       0.51100000
C        2.45580000      -1.32920000       1.08180000
C        1.81430000      -0.18680000       1.95720000
C        0.41450000      -0.49760000       1.37010000
C        3.09140000      -2.40170000       1.81680000
C        3.58330000      -3.30710000       2.43790000
H        1.58780000       1.66570000      -0.20690000
H        0.32220000       1.70220000      -1.44110000
H       -0.03180000       2.28130000       0.19600000
H       -1.01750000       0.03710000      -0.19750000
H        0.70210000      -2.67460000       0.48170000
H        3.10920000      -0.96120000       0.28560000
H        1.87670000      -0.41190000       3.02270000
H        2.21140000       0.81680000       1.79150000
H       -0.40340000      -0.63160000       2.07630000
H        4.03300000      -4.10310000       2.97770000
