21
Properties=species:S:1:pos:R:3 gdb_114830=T pbc="F F F"
C       -0.25510000       1.63210000      -0.13630000
C       -0.07110000       0.11690000       0.00360000
C        0.73960000      -0.49110000      -1.14380000
C        2.26680000      -0.14880000      -1.15860000
C        2.86210000      -1.56260000      -1.29440000
O        2.78900000      -2.21250000      -0.02450000
C        1.41520000      -2.62370000       0.08260000
C        0.81340000      -2.03950000      -1.20770000
O        1.92160000      -2.24410000      -2.10370000
H        0.70910000       2.15100000      -0.14500000
H       -0.77380000       1.88220000      -1.06840000
H       -0.84330000       2.03770000       0.69240000
H        0.41620000      -0.09920000       0.96220000
H       -1.05860000      -0.36260000       0.04460000
H        0.29360000      -0.16350000      -2.08940000
H        2.54400000       0.48560000      -2.00420000
H        2.60710000       0.32870000      -0.23650000
H        3.87050000      -1.65770000      -1.69630000
H        1.35560000      -3.71840000       0.09530000
H        0.97140000      -2.23100000       1.00200000
H       -0.07670000      -2.54310000      -1.58340000
