20
Properties=species:S:1:pos:R:3 gdb_92308=T pbc="F F F"
C        0.04150000       1.53800000       0.09610000
N        0.07190000       0.09500000       0.15700000
C       -1.18830000      -0.65910000       0.28280000
C       -0.49910000      -1.61740000       1.28620000
C        0.13990000      -2.90950000       0.71480000
C        1.53390000      -2.52240000       0.17660000
C        1.93810000      -1.28040000       0.97760000
O        3.05650000      -0.93020000       1.25250000
C        0.64120000      -0.56460000       1.35840000
H        1.06320000       1.93020000       0.10920000
H       -0.42920000       1.85780000      -0.83980000
H       -0.51560000       1.99730000       0.93460000
H       -1.99710000      -0.07680000       0.75310000
H       -1.56470000      -1.08560000      -0.65550000
H       -1.06330000      -1.80870000       2.19830000
H        0.25160000      -3.63970000       1.52320000
H       -0.49320000      -3.37420000      -0.04670000
H        2.28700000      -3.30740000       0.26460000
H        1.48350000      -2.22380000      -0.87650000
H        0.72710000       0.06540000       2.25110000
