18
Properties=species:S:1:pos:R:3 gdb_100448=T pbc="F F F"
C       -0.08680000       1.62590000       0.12700000
C        0.06830000       0.10540000       0.06420000
C        0.62110000      -0.39620000      -1.29640000
N        1.95500000       0.09460000      -1.67410000
H        2.62040000      -0.12750000      -0.93780000
H        2.22080000      -4.40440000      -2.23880000
H        1.93230000       1.10670000      -1.75090000
C        0.61570000      -1.85980000      -1.32600000
C        0.59480000      -3.06570000      -1.31050000
C        0.56360000      -4.51380000      -1.30250000
O        1.63480000      -5.09350000      -1.89950000
O       -0.31220000      -5.17680000      -0.82030000
H        0.87350000       2.13860000       0.00840000
H       -0.76190000       1.99020000      -0.65570000
H       -0.50180000       1.93220000       1.09130000
H        0.73910000      -0.24270000       0.85950000
H       -0.89970000      -0.37640000       0.24140000
H       -0.06870000      -0.05600000      -2.08280000
