18
Properties=species:S:1:pos:R:3 gdb_54971=T pbc="F F F"
C       -0.34200000       1.59440000       0.13150000
C       -0.03950000       0.11730000       0.01850000
C        1.33640000      -0.37810000      -0.37250000
C        0.87710000      -0.61760000       1.02940000
C        1.51430000       0.16900000       2.13960000
N        1.31690000      -0.35300000       3.38560000
O        2.17090000       1.17760000       1.95170000
C       -1.16520000      -0.74010000      -0.44720000
O       -2.27170000      -0.34010000      -0.70700000
H        0.51300000       2.13820000       0.53270000
H       -0.59320000       1.99570000      -0.85470000
H       -1.20800000       1.76020000       0.77890000
H        1.41520000      -1.23120000      -1.03800000
H        2.09560000       0.38640000      -0.49070000
H        0.56620000      -1.62640000       1.28710000
H        0.66510000      -1.09880000       3.55480000
H        1.65160000       0.17840000       4.17300000
H       -0.90540000      -1.82200000      -0.54560000
