18
Properties=species:S:1:pos:R:3 gdb_110918=T pbc="F F F"
C       -0.29700000       1.07120000       0.24590000
O        0.56690000       0.01710000      -0.14890000
C        1.11040000      -0.67560000       0.92340000
C        0.30340000      -1.60300000       1.78290000
N       -0.81530000      -2.14570000       0.98460000
C        0.16950000      -2.80490000       0.06740000
C       -0.00900000      -2.49450000      -1.40930000
O        0.70400000      -2.95440000      -2.26380000
C        1.35780000      -2.14430000       0.79940000
H        0.23520000       1.81900000       0.85180000
H       -0.65370000       1.54830000      -0.66940000
H       -1.15200000       0.68660000       0.81480000
H        1.89230000      -0.13960000       1.46650000
H        0.27530000      -1.56610000       2.86580000
H       -1.32420000      -2.84600000       1.51300000
H        0.20430000      -3.89230000       0.19200000
H       -0.85980000      -1.81920000      -1.63590000
H        2.32970000      -2.60060000       0.93280000
