21
Properties=species:S:1:pos:R:3 gdb_88054=T pbc="F F F"
C       -0.11110000       1.39370000      -0.21330000
C        0.13940000      -0.09260000      -0.08950000
C        1.54630000      -0.63770000      -0.04770000
C        0.68950000      -0.68000000       1.18660000
C        0.95770000       0.03200000       2.51990000
C        0.55750000      -1.27590000       3.26260000
C        0.21500000      -1.97070000       1.90280000
C       -1.24790000      -2.25810000       1.70380000
O       -1.70060000      -3.25590000       1.20260000
H        0.63770000       1.96950000       0.34020000
H       -0.06650000       1.71370000      -1.25990000
H       -1.09740000       1.66890000       0.17720000
H       -0.58250000      -0.71650000      -0.61270000
H        1.75950000      -1.57130000      -0.55910000
H        2.36620000       0.07560000      -0.05710000
H        1.98920000       0.35860000       2.67800000
H        0.29720000       0.88020000       2.72400000
H        1.37360000      -1.76400000       3.79720000
H       -0.29020000      -1.17820000       3.94630000
H        0.79000000      -2.86950000       1.66900000
H       -1.92090000      -1.43700000       2.05170000
