16
Properties=species:S:1:pos:R:3 gdb_19445=T pbc="F F F"
C        0.12840000       1.54100000      -0.07590000
C        1.30040000       0.58680000       0.11140000
C       -0.08920000       0.06640000      -0.04370000
O       -0.80070000      -0.59870000       1.00610000
C       -1.28440000      -1.61990000       0.09770000
C       -0.62390000      -0.89590000      -1.07300000
C       -1.01290000      -0.73000000      -2.46950000
O        0.13990000      -1.50540000      -2.08810000
H       -0.20190000       2.09990000       0.79310000
H        0.02100000       2.06400000      -1.02100000
H        1.98830000       0.43310000      -0.71340000
H        1.74120000       0.52540000       1.10030000
H       -0.85730000      -2.60580000       0.31500000
H       -2.37820000      -1.67720000       0.09080000
H       -1.84730000      -1.30260000      -2.87250000
H       -0.79560000       0.20320000      -2.98720000
