20
Properties=species:S:1:pos:R:3 gdb_113167=T pbc="F F F"
C        0.14410000       1.46220000       0.20190000
C       -0.24460000       0.02680000      -0.17120000
C        0.57200000      -0.50740000      -1.32820000
C        1.93790000      -1.10000000      -1.10660000
C        0.78660000      -1.99870000      -1.50430000
O        0.20980000      -2.84610000      -0.54050000
C        0.77280000      -2.51010000      -2.92330000
N        0.15640000      -3.71680000      -3.07320000
O        1.28300000      -1.88950000      -3.83980000
H        1.19600000       1.52120000       0.50040000
H        0.00260000       2.14400000      -0.64360000
H       -0.46420000       1.83100000       1.03360000
H       -0.12400000      -0.63470000       0.69240000
H       -1.30920000      -0.00850000      -0.43490000
H        0.45570000       0.02140000      -2.27020000
H        2.70640000      -0.93460000      -1.85210000
H        2.27780000      -1.19550000      -0.07950000
H        0.89910000      -3.43440000      -0.21350000
H       -0.40280000      -4.07210000      -2.31560000
H       -0.01270000      -4.04090000      -4.01120000
