21
Properties=species:S:1:pos:R:3 gdb_85872=T pbc="F F F"
C        0.31730000       1.59010000      -0.14500000
C        0.05670000       0.11390000       0.08010000
O        0.79740000      -0.73690000      -0.83180000
C        1.36290000      -1.54880000       0.24620000
C        0.77210000      -2.95320000       0.24760000
C        2.88310000      -1.55030000       0.17680000
C        0.71440000      -0.59510000       1.26040000
C        1.17080000      -0.10260000       2.55720000
O        0.04890000      -0.99610000       2.43770000
H        1.38170000       1.82110000      -0.04310000
H       -0.00270000       1.88000000      -1.15050000
H       -0.24560000       2.19290000       0.57600000
H       -1.02070000      -0.09940000       0.02600000
H        1.07390000      -3.48510000      -0.65990000
H        1.12190000      -3.51920000       1.11660000
H       -0.31950000      -2.91770000       0.28300000
H        3.27520000      -0.52990000       0.18640000
H        3.31160000      -2.09960000       1.02190000
H        3.21530000      -2.03590000      -0.74640000
H        2.05830000      -0.53020000       3.02140000
H        0.92630000       0.91110000       2.87160000
