14
Properties=species:S:1:pos:R:3 gdb_1423=T pbc="F F F"
C       -0.03800000       1.46460000      -0.11690000
C        0.07890000      -0.04860000       0.01700000
O        0.71490000      -0.43520000       1.23360000
C        2.05050000      -0.63290000       1.20760000
N        2.67310000      -0.86980000       2.27670000
C       -1.27910000      -0.74850000       0.00470000
O       -2.21430000      -0.37360000      -0.64960000
H        0.94720000       1.92170000      -0.24040000
H       -0.65810000       1.70330000      -0.98390000
H       -0.50880000       1.88420000       0.77580000
H        0.64090000      -0.46170000      -0.83780000
H        2.47840000      -0.57500000       0.19620000
H        3.66120000      -1.01620000       2.08190000
H       -1.31880000      -1.65260000       0.64910000
