16
Properties=species:S:1:pos:R:3 gdb_19742=T pbc="F F F"
C       -0.02220000       1.48490000      -0.02220000
C        1.26970000       1.82070000      -0.03370000
C        1.99010000       0.47440000       0.01830000
C        1.15890000      -0.44300000      -0.97230000
C        1.53340000      -1.86520000      -0.55820000
C        1.53180000      -1.81340000       0.77570000
C        1.15860000      -0.36280000       1.07730000
C        0.00500000      -0.04150000       0.03820000
H       -0.90240000       2.11220000      -0.04770000
H        1.73240000       2.79700000      -0.07100000
H        3.08080000       0.43940000       0.02000000
H        1.08160000      -0.18560000      -2.02990000
H        1.74290000      -2.69390000      -1.22000000
H        1.73960000      -2.58830000       1.50030000
H        1.08070000      -0.02370000       2.11160000
H       -0.93040000      -0.60300000       0.05990000
