21
Properties=species:S:1:pos:R:3 gdb_26177=T pbc="F F F"
C        0.03330000       1.47540000      -0.24850000
C        0.00620000      -0.02990000       0.08050000
C        0.69590000      -0.31140000       1.42960000
C       -1.38410000      -0.59680000       0.02480000
C       -1.92040000      -1.56630000      -0.79790000
C       -3.29010000      -1.74350000      -0.44130000
N       -4.20410000      -2.59240000      -1.10100000
C       -3.55390000      -0.87460000       0.59420000
N       -2.38640000      -0.18070000       0.86110000
H        1.06150000       1.85260000      -0.26600000
H       -0.42420000       1.67270000      -1.22180000
H       -0.51630000       2.05670000       0.50130000
H        0.57430000      -0.55120000      -0.69900000
H        0.17590000       0.18950000       2.25480000
H        0.70950000      -1.38290000       1.64770000
H        1.72840000       0.05380000       1.42390000
H       -1.39010000      -2.08810000      -1.58130000
H       -3.77160000      -3.46410000      -1.38180000
H       -5.00810000      -2.80860000      -0.52470000
H       -4.45870000      -0.68610000       1.14890000
H       -2.28880000       0.51530000       1.57790000
