22
Properties=species:S:1:pos:R:3 gdb_116087=T pbc="F F F"
C        0.04830000       1.54760000      -0.04120000
C       -0.00950000       0.02160000       0.03020000
N       -1.36970000      -0.51630000       0.01910000
C       -1.38770000      -1.95330000      -0.23560000
C       -2.81770000      -2.44190000      -0.46750000
C       -3.70380000      -2.14080000       0.75100000
C       -3.54540000      -0.70400000       1.21470000
O       -4.47000000      -0.02640000       1.59570000
C       -2.11100000      -0.17690000       1.23220000
H        1.08520000       1.87310000      -0.16900000
H       -0.53730000       1.91260000      -0.88990000
H       -0.33130000       2.02430000       0.86670000
H        0.50330000      -0.39010000      -0.84630000
H        0.55400000      -0.33160000       0.91730000
H       -0.78060000      -2.14890000      -1.12540000
H       -0.92840000      -2.52560000       0.59830000
H       -3.22140000      -1.93590000      -1.35140000
H       -2.81610000      -3.51670000      -0.67600000
H       -4.76230000      -2.34150000       0.57040000
H       -3.38620000      -2.77670000       1.59110000
H       -1.62130000      -0.59350000       2.14190000
H       -2.16650000       0.90480000       1.35870000
