24
Properties=species:S:1:pos:R:3 gdb_122819=T pbc="F F F"
C        0.00570000       1.58840000      -0.06040000
C       -0.01550000       0.05770000      -0.07880000
C       -1.42370000      -0.52890000       0.06960000
C       -1.44350000      -2.05970000       0.05810000
C       -2.85160000      -2.64630000       0.20480000
C       -2.82780000      -4.16480000       0.36660000
O       -1.97160000      -4.73580000       1.02040000
N       -3.84660000      -4.82650000      -0.25830000
C       -4.01450000      -6.26360000      -0.17380000
H        1.02360000       1.97610000      -0.16850000
H       -0.59660000       2.00310000      -0.87660000
H       -0.40070000       1.97890000       0.87940000
H        0.42950000      -0.30430000      -1.01510000
H        0.62180000      -0.32890000       0.72720000
H       -1.87070000      -0.16580000       1.00620000
H       -2.06280000      -0.14300000      -0.73770000
H       -0.99400000      -2.42700000      -0.87380000
H       -0.82570000      -2.45690000       0.86990000
H       -3.32520000      -2.23620000       1.10740000
H       -3.48670000      -2.35140000      -0.63990000
H       -4.51730000      -4.29050000      -0.78260000
H       -4.96290000      -6.53040000       0.30670000
H       -3.98240000      -6.72890000      -1.16540000
H       -3.19010000      -6.64860000       0.42750000
