23
Properties=species:S:1:pos:R:3 gdb_74900=T pbc="F F F"
C       -0.08480000       1.65300000      -0.02870000
C       -0.00360000       0.14720000      -0.01130000
C        0.10050000      -0.54040000      -1.15660000
C        0.15460000      -2.00650000      -1.37970000
C        0.75780000      -3.01940000      -0.42050000
C       -0.73600000      -2.93770000      -0.56750000
C       -1.64140000      -2.33630000       0.49450000
C       -0.96480000      -1.63520000       1.68490000
C        0.03320000      -0.48000000       1.37530000
H        0.74820000       2.10170000       0.52950000
H       -0.06290000       2.05290000      -1.04620000
H       -1.00410000       2.00640000       0.45730000
H        0.09950000       0.04060000      -2.07720000
H        0.25880000      -2.27060000      -2.42730000
H        1.27060000      -3.86630000      -0.86380000
H        1.21560000      -2.66580000       0.49340000
H       -1.20000000      -3.74020000      -1.13450000
H       -2.31730000      -1.62330000       0.00430000
H       -2.28160000      -3.12830000       0.90170000
H       -1.76950000      -1.24070000       2.31550000
H       -0.45180000      -2.38540000       2.29740000
H        1.05830000      -0.82430000       1.56120000
H       -0.12810000       0.31240000       2.11360000
