17
Properties=species:S:1:pos:R:3 gdb_123892=T pbc="F F F"
C        0.01160000       1.41690000       0.01790000
C        1.45230000       1.92770000      -0.03470000
N        2.13060000       1.23560000      -1.11300000
N        3.30260000       1.66950000      -1.61910000
C        3.63830000       0.73720000      -2.50870000
C        2.69060000      -0.30500000      -2.56910000
C        1.72940000       0.05140000      -1.64190000
C        0.42720000      -0.55110000      -1.19680000
O       -0.01620000       0.00060000       0.03340000
H       -0.47600000       1.75440000       0.93560000
H       -0.55840000       1.80440000      -0.84200000
H        1.48810000       3.00380000      -0.22450000
H        1.96310000       1.72630000       0.91400000
H        4.55090000       0.84610000      -3.07630000
H        2.70180000      -1.18310000      -3.19460000
H       -0.34340000      -0.40360000      -1.97330000
H        0.53010000      -1.62790000      -1.03590000
