17
Properties=species:S:1:pos:R:3 gdb_16403=T pbc="F F F"
O        0.06100000      -0.02560000      -0.17740000
C        0.02990000       1.16460000       0.01910000
C       -1.27480000       1.92080000       0.31050000
C       -1.05220000       3.36440000       0.86190000
N        0.33420000       3.85010000       0.74830000
C        0.88610000       3.43290000      -0.58830000
C        1.25770000       2.05090000       0.01010000
C        1.24720000       2.82780000       1.35890000
H       -1.81960000       1.95270000      -0.64080000
H       -1.88390000       1.30540000       0.97770000
H       -1.69960000       4.07250000       0.33560000
H       -1.32530000       3.41080000       1.92070000
H        0.18020000       3.47490000      -1.42310000
H        1.76760000       4.03240000      -0.83360000
H        2.14590000       1.50820000      -0.31630000
H        2.21890000       3.27460000       1.58970000
H        0.86020000       2.32530000       2.25080000
