16
Properties=species:S:1:pos:R:3 gdb_12150=T pbc="F F F"
C        0.04900000       1.65960000       0.01990000
C        0.10480000       0.14080000      -0.01350000
C        0.76480000      -0.60110000      -1.23870000
C        1.52850000      -1.54790000      -0.24630000
C        1.12650000      -0.58340000       0.87880000
O        1.52590000      -0.39000000       1.98980000
C       -0.11780000      -1.20750000      -2.21190000
C       -0.86620000      -1.71740000      -3.00330000
H        1.03160000       2.09570000      -0.18760000
H       -0.65910000       2.04430000      -0.72020000
H       -0.26620000       2.00540000       1.00870000
H       -0.88660000      -0.29080000       0.17250000
H        1.47380000       0.06990000      -1.73480000
H        1.03890000      -2.52050000      -0.14110000
H        2.59710000      -1.70140000      -0.40940000
H       -1.52160000      -2.16620000      -3.70790000
