19
Properties=species:S:1:pos:R:3 gdb_69307=T pbc="F F F"
C       -0.13740000       1.58160000       0.06100000
C        0.13550000       0.11790000      -0.02240000
O       -0.76420000      -0.80740000       0.64560000
C        0.62450000      -0.90280000       0.94410000
C        1.25720000      -1.80290000      -0.14300000
C        2.78900000      -1.78620000      -0.13420000
C        0.68450000      -3.20970000      -0.27950000
C        0.73350000      -0.72070000      -1.15250000
O        0.90190000      -0.54500000      -2.32350000
H        0.74240000       2.15350000      -0.24910000
H       -0.96590000       1.85540000      -0.60000000
H       -0.40360000       1.86420000       1.08290000
H        0.93860000      -0.75210000       1.97130000
H        3.17510000      -2.40920000       0.67980000
H        3.17650000      -2.17860000      -1.07870000
H        3.18640000      -0.77370000      -0.00410000
H       -0.40440000      -3.19480000      -0.19590000
H        0.94980000      -3.63270000      -1.25380000
H        1.08620000      -3.87320000       0.49480000
