23
Properties=species:S:1:pos:R:3 gdb_99987=T pbc="F F F"
C        0.11220000       1.58130000       0.20690000
C       -0.03100000       0.07390000      -0.02590000
C        0.62920000      -0.43290000      -1.32950000
C        0.00500000       0.19590000      -2.57690000
O        2.00020000      -0.02740000      -1.35840000
C        0.57470000      -2.00030000      -1.37970000
C       -0.84680000      -2.60130000      -1.42260000
C        1.37170000      -2.52670000      -2.48800000
C        1.99220000      -2.99490000      -3.40520000
H        1.15910000       1.88450000       0.12890000
H       -0.46040000       2.16030000      -0.52380000
H       -0.25510000       1.85260000       1.20130000
H        0.42830000      -0.46490000       0.81580000
H       -1.09200000      -0.19810000      -0.01840000
H        0.22390000       1.26540000      -2.60180000
H        0.42580000      -0.25700000      -3.47760000
H       -1.08020000       0.06520000      -2.58830000
H        2.46920000      -0.49720000      -0.65970000
H        1.04450000      -2.34290000      -0.44390000
H       -1.43500000      -2.29670000      -0.55380000
H       -1.37510000      -2.29460000      -2.32880000
H       -0.78750000      -3.69250000      -1.42620000
H        2.55640000      -3.39430000      -4.21120000
