19
Properties=species:S:1:pos:R:3 gdb_48953=T pbc="F F F"
O       -0.07380000      -0.00140000      -0.19530000
C        0.03280000       1.14000000       0.19070000
C        1.27800000       1.94170000       0.13590000
C        1.56210000       3.16920000       1.02030000
C        2.59400000       3.51910000      -0.08070000
C        3.62260000       2.37830000       0.09760000
C        2.64550000       1.25030000      -0.29520000
C        2.33020000       1.62110000      -1.76930000
C        1.63110000       2.82960000      -1.13950000
H       -0.84930000       1.68490000       0.60240000
H        0.70230000       3.84650000       1.02610000
H        1.92750000       3.02380000       2.04210000
H        2.96200000       4.53530000      -0.21700000
H        4.47840000       2.43550000      -0.58090000
H        3.99500000       2.31670000       1.12400000
H        2.86430000       0.22620000      -0.00050000
H        3.17460000       1.78500000      -2.44630000
H        1.60850000       0.93880000      -2.22290000
H        0.88820000       3.45100000      -1.63870000
