15
Properties=species:S:1:pos:R:3 gdb_34275=T pbc="F F F"
N        0.07400000      -1.07660000       0.23690000
C        0.02190000       0.06180000       0.03990000
C       -0.12700000       1.47520000      -0.17920000
C       -1.38860000       2.19420000       0.36680000
C       -1.07170000       3.60500000      -0.08920000
C       -0.08050000       3.57220000      -1.00730000
C        1.33110000       3.66390000      -0.41650000
N        1.29360000       2.12640000      -0.40440000
C        0.24290000       2.14070000      -1.44340000
H       -2.27650000       1.68830000      -0.03540000
H       -1.47540000       2.17810000       1.45790000
H       -1.14720000       4.42100000       0.62370000
H        2.15370000       3.91950000      -1.09050000
H        1.44650000       4.16040000       0.54940000
H        0.36390000       1.70830000      -2.42960000
