16
Properties=species:S:1:pos:R:3 gdb_124678=T pbc="F F F"
C        0.15300000       1.49950000      -0.19250000
C        0.03890000       0.00110000       0.07730000
C        0.44020000      -0.85450000      -1.13020000
O        0.52250000      -0.43120000      -2.25080000
N        0.78620000      -0.43780000       1.24870000
C        2.09850000      -0.29720000       1.54380000
N        2.38190000      -0.88760000       2.68960000
C        1.17670000      -1.39620000       3.06400000
N        0.17920000      -1.15720000       2.22810000
H        1.18730000       1.79030000      -0.39430000
H       -0.43530000       1.75130000      -1.07670000
H       -0.21500000       2.07030000       0.66250000
H       -1.00010000      -0.26560000       0.30620000
H        0.64140000      -1.91890000      -0.87990000
H        2.79140000       0.23750000       0.91180000
H        1.02850000      -1.95480000       3.97610000
