20
Properties=species:S:1:pos:R:3 gdb_107149=T pbc="F F F"
C        0.02080000       1.50000000      -0.31170000
C        0.02760000       0.01970000       0.09500000
C       -1.35200000      -0.53020000       0.27940000
C       -2.37140000      -0.21570000       1.40210000
C       -2.91430000      -1.65500000       1.20020000
C       -3.32450000      -2.59340000       2.26580000
N       -4.28080000      -2.15230000       1.22610000
C       -1.92600000      -1.87570000       0.07420000
O       -2.13790000      -0.82340000      -0.88520000
H        1.04040000       1.87130000      -0.44950000
H       -0.52360000       1.63940000      -1.25020000
H       -0.46060000       2.12000000       0.45200000
H        0.53640000      -0.57630000      -0.67050000
H        0.58870000      -0.10950000       1.02910000
H       -1.92320000      -0.05800000       2.38700000
H       -3.05880000       0.60150000       1.16770000
H       -3.05220000      -3.64460000       2.21320000
H       -3.42230000      -2.20230000       3.27590000
H       -4.90630000      -1.44250000       1.59980000
H       -1.48530000      -2.79820000      -0.28690000
