16
Properties=species:S:1:pos:R:3 gdb_127991=T pbc="F F F"
C       -0.08590000       1.45210000       0.02780000
N        0.01030000       0.00260000      -0.00610000
C       -1.05400000      -0.68630000      -0.00780000
O       -2.30020000      -0.03460000       0.02570000
N       -3.50320000      -0.71230000       0.02070000
C       -3.45990000      -1.99420000      -0.01460000
C       -2.24980000      -2.79690000      -0.04120000
N       -2.39380000      -4.16650000      -0.13450000
C       -1.07450000      -2.12630000      -0.03280000
H        0.92220000       1.87400000       0.02170000
H       -0.63320000       1.85250000      -0.83660000
H       -0.60580000       1.81310000       0.92590000
H       -4.43650000      -2.47190000      -0.02790000
H       -3.23580000      -4.55860000       0.25900000
H       -1.57190000      -4.71580000       0.06760000
H       -0.11040000      -2.61950000      -0.04830000
