19
Properties=species:S:1:pos:R:3 gdb_90469=T pbc="F F F"
O        0.15080000       1.39130000      -0.15010000
C        0.03380000      -0.01860000       0.00980000
C        0.61790000      -0.48510000       1.36660000
C       -0.56330000      -0.45130000       2.33620000
C       -1.83760000      -0.43820000       1.51900000
C       -1.44980000      -0.46380000       0.04080000
C       -1.49430000      -1.66070000       2.36630000
C       -1.12800000      -2.91200000       1.77490000
C       -0.81830000      -3.96280000       1.27550000
H       -0.31520000       1.80750000       0.58400000
H        0.57520000      -0.44030000      -0.84140000
H        1.03480000      -1.49460000       1.28610000
H        1.42390000       0.18560000       1.67370000
H       -0.47770000       0.10900000       3.26040000
H       -2.70500000       0.13180000       1.83220000
H       -2.05520000       0.22160000      -0.55710000
H       -1.56530000      -1.46770000      -0.38130000
H       -2.07940000      -1.75510000       3.27720000
H       -0.55120000      -4.89560000       0.84420000
