19
Properties=species:S:1:pos:R:3 gdb_71364=T pbc="F F F"
O       -0.00030000       1.38740000       0.14460000
C        0.05340000       0.00240000       0.05800000
C        0.69650000      -0.97290000       1.07130000
C        0.04030000      -1.85630000      -0.00820000
C       -1.21190000      -0.89830000      -0.03510000
C       -1.76010000      -0.88260000      -1.45640000
C       -1.42280000       0.30080000      -2.33540000
C       -0.47430000      -0.87610000      -2.25700000
C        0.55680000      -0.89030000      -1.13750000
H        0.90240000       1.72450000       0.14200000
H        1.78980000      -0.98480000       1.11980000
H        0.25320000      -0.99820000       2.07040000
H        0.01970000      -2.94320000      -0.05600000
H       -1.90370000      -0.90990000       0.80880000
H       -2.59770000      -1.52210000      -1.71010000
H       -1.99450000       0.39130000      -3.25420000
H       -1.14870000       1.24220000      -1.87720000
H       -0.32980000      -1.50890000      -3.12530000
H        1.62090000      -0.88970000      -1.38400000
