20
Properties=species:S:1:pos:R:3 gdb_120591=T pbc="F F F"
C       -0.18960000       1.33250000      -0.02310000
O       -0.19820000      -0.06810000      -0.17160000
C        0.83340000      -0.53460000      -1.01380000
C        0.75750000      -2.04020000      -1.03390000
C       -0.15330000      -2.77230000      -1.97290000
C        1.35490000      -2.86520000      -2.17420000
C        2.00410000      -2.22590000      -3.39480000
C        1.97980000      -4.10340000      -1.77230000
N        2.49280000      -5.09250000      -1.46010000
H        0.75460000       1.69150000       0.41610000
H       -0.33670000       1.84720000      -0.98610000
H       -1.01270000       1.59400000       0.64580000
H        0.72000000      -0.11330000      -2.02570000
H        1.81650000      -0.20570000      -0.63510000
H        0.87050000      -2.48120000      -0.04860000
H       -0.67970000      -3.64780000      -1.61300000
H       -0.69100000      -2.19030000      -2.71420000
H        1.46000000      -1.33250000      -3.70710000
H        3.04160000      -1.94490000      -3.19090000
H        2.00350000      -2.92850000      -4.23320000
