14
Properties=species:S:1:pos:R:3 gdb_19600=T pbc="F F F"
O        0.15190000       1.38740000      -0.10810000
C        0.11750000      -0.00720000      -0.09980000
C        0.15900000      -0.64080000       1.32350000
O       -1.26130000      -0.24040000       1.45390000
C       -1.31360000      -0.61230000       0.02100000
C       -1.08000000      -2.13400000       0.10180000
O        0.23710000      -2.55530000      -0.29070000
C        0.01730000      -2.15520000       1.07240000
H       -0.45650000       1.67610000       0.58600000
H        0.79110000      -0.37380000      -0.86930000
H        0.79510000      -0.27680000       2.12920000
H       -2.18270000      -0.21930000      -0.50470000
H       -1.87320000      -2.86800000       0.02090000
H        0.17830000      -2.90770000       1.83560000
