21
Properties=species:S:1:pos:R:3 gdb_106528=T pbc="F F F"
O        0.00310000       1.38550000      -0.28640000
C        0.05760000       0.01700000       0.07650000
C       -1.33550000      -0.57320000       0.17840000
C       -1.54000000      -2.10390000       0.09840000
C       -2.70650000      -1.69150000      -0.82360000
C       -3.97690000      -1.34630000      -0.04730000
C       -3.59670000      -0.68780000       1.30290000
C       -2.24650000       0.07080000       1.22980000
O       -2.02660000      -0.43360000      -1.11210000
H       -0.52150000       1.42520000      -1.09530000
H        0.64070000      -0.56690000      -0.65240000
H        0.57050000      -0.03670000       1.04340000
H       -0.73420000      -2.59210000      -0.45350000
H       -1.75950000      -2.65550000       1.01420000
H       -2.89310000      -2.27330000      -1.73030000
H       -4.56310000      -0.66290000      -0.67130000
H       -4.58990000      -2.23940000       0.12150000
H       -4.39360000      -0.02170000       1.64570000
H       -3.51700000      -1.47220000       2.06310000
H       -1.76150000       0.07140000       2.21310000
H       -2.38390000       1.11610000       0.93970000
