11
Properties=species:S:1:pos:R:3 gdb_831=T pbc="F F F"
C        0.02650000       1.55970000       0.01010000
C        0.00180000       0.03060000       0.00220000
C       -1.40500000      -0.52780000       0.01270000
F       -2.10880000      -0.12630000      -1.05980000
F       -1.39820000      -1.87110000       0.00550000
F       -2.08820000      -0.13780000       1.10250000
H        1.05700000       1.92300000       0.00220000
H       -0.48480000       1.96250000      -0.86820000
H       -0.46800000       1.95310000       0.90210000
H        0.49890000      -0.37000000      -0.88650000
H        0.51570000      -0.37930000       0.87700000
