18
Properties=species:S:1:pos:R:3 gdb_19746=T pbc="F F F"
C       -0.02070000       1.50330000      -0.01510000
C        1.51240000       1.80560000      -0.02880000
C        2.05300000       0.37640000       0.01780000
C        1.15200000      -0.44800000      -0.96780000
C        1.44000000      -1.89070000      -0.56450000
O        1.42870000      -1.76820000       0.87390000
C        1.15650000      -0.38020000       1.04270000
C        0.02250000      -0.02400000       0.03590000
H       -0.52700000       1.93300000       0.85480000
H       -0.53140000       1.87530000      -0.90840000
H        1.82830000       2.34050000      -0.92940000
H        1.83250000       2.39830000       0.83380000
H        3.13430000       0.22870000       0.03220000
H        1.09570000      -0.21040000      -2.03140000
H        0.66810000      -2.60000000      -0.88810000
H        2.41780000      -2.25500000      -0.90360000
H        1.11700000      -0.13190000       2.10390000
H       -0.92140000      -0.57100000       0.06820000
