15
Properties=species:S:1:pos:R:3 gdb_43246=T pbc="F F F"
O       -0.05190000       0.08390000       0.39770000
C       -0.06440000       1.22760000       0.01670000
C       -1.23170000       2.13510000      -0.21680000
C       -0.76990000       3.29700000      -0.70960000
C       -0.67090000       4.67730000      -0.09970000
C        0.86730000       4.28230000       0.04160000
O        1.17910000       3.19680000       0.95470000
C        1.16490000       2.16940000      -0.11370000
C        0.70870000       3.25500000      -1.08720000
H       -2.17400000       1.97690000       0.29360000
H       -0.72330000       5.51580000      -0.80270000
H       -1.27240000       4.88220000       0.78730000
H        1.59250000       5.09650000       0.11120000
H        2.13160000       1.66920000      -0.19140000
H        1.03300000       3.35200000      -2.11970000
