16
Properties=species:S:1:pos:R:3 gdb_55582=T pbc="F F F"
C       -0.39020000       1.36450000      -0.63290000
C        0.19120000       0.04270000      -0.23100000
N        1.41660000      -0.22600000      -0.25320000
O       -0.87540000      -0.79660000       0.15900000
C       -0.68300000      -2.08690000       0.58770000
O        0.36430000      -2.66080000       0.68940000
N       -1.93840000      -2.58920000       0.87750000
C       -2.27210000      -3.85830000       1.34750000
N       -1.43290000      -4.77390000       1.58610000
H        0.41600000       2.02910000      -0.94000000
H       -1.09840000       1.23660000      -1.45770000
H       -0.93930000       1.81110000       0.20220000
H        1.60240000      -1.17820000       0.05880000
H       -2.69700000      -1.94450000       0.72460000
H       -3.35910000      -3.93370000       1.47430000
H       -1.91670000      -5.60620000       1.91870000
