20
Properties=species:S:1:pos:R:3 gdb_63079=T pbc="F F F"
C       -0.07280000       1.53260000       0.03960000
C        0.02600000       0.01970000       0.03090000
C       -1.18230000      -0.64790000      -0.60890000
C        1.33140000      -0.69070000      -0.23950000
O        2.53660000       0.05470000      -0.10190000
C        2.57490000       0.41120000       1.20780000
N        1.64390000       0.02310000       1.98030000
C        0.72350000      -0.75340000       1.16170000
C        0.12810000      -1.94460000       1.87000000
H        0.74340000       2.01240000       0.58010000
H       -0.07610000       1.92110000      -0.98500000
H       -1.00910000       1.84330000       0.51640000
H       -1.37510000      -0.20540000      -1.59280000
H       -1.04290000      -1.72210000      -0.75670000
H       -2.08140000      -0.50880000       0.00170000
H        1.42000000      -1.49280000      -0.96320000
H        3.42750000       1.01800000       1.48850000
H       -0.47870000      -1.61180000       2.71840000
H       -0.50410000      -2.54450000       1.21300000
H        0.92220000      -2.58770000       2.26200000
