19
Properties=species:S:1:pos:R:3 gdb_31516=T pbc="F F F"
C        0.21670000       1.53320000       0.20080000
C       -0.09660000       0.05740000      -0.10770000
C        0.58660000      -0.46590000      -1.33190000
C        0.07670000      -0.78720000      -2.57770000
C        1.16580000      -1.21120000      -3.38700000
O        1.15170000      -1.63100000      -4.69130000
C        2.31660000      -1.14410000      -2.63230000
N        3.67210000      -1.44300000      -2.89440000
N        1.93560000      -0.68520000      -1.38220000
H        1.28860000       1.68710000       0.36340000
H       -0.08570000       2.17560000      -0.63160000
H       -0.30910000       1.86580000       1.10170000
H        0.16900000      -0.55590000       0.76470000
H       -1.17610000      -0.06390000      -0.24480000
H       -0.96290000      -0.72350000      -2.86690000
H        0.24470000      -1.59950000      -5.00700000
H        4.03480000      -0.87870000      -3.65700000
H        3.78970000      -2.41270000      -3.17270000
H        2.59170000      -0.55360000      -0.63150000
