18
Properties=species:S:1:pos:R:3 gdb_80834=T pbc="F F F"
C       -0.18540000       1.52920000       0.02690000
C        0.01610000       0.02190000       0.03080000
C        1.15710000      -0.60340000      -0.81490000
C        2.16580000      -0.21890000       0.28710000
C        0.92490000      -0.59070000       1.17940000
O        0.80090000      -0.29320000       2.51280000
C        0.79980000      -2.04210000       0.79480000
N        0.58480000      -2.99200000       1.59310000
O        0.96010000      -2.04270000      -0.56110000
H        0.74380000       2.09380000       0.13510000
H       -0.66590000       1.84990000      -0.90350000
H       -0.84000000       1.81400000       0.85610000
H       -0.94460000      -0.48550000      -0.10370000
H        1.30450000      -0.44450000      -1.87910000
H        3.06480000      -0.83200000       0.37540000
H        2.41290000       0.84080000       0.31410000
H        0.62710000      -1.13520000       2.96260000
H        0.52510000      -3.89690000       1.12690000
