17
Properties=species:S:1:pos:R:3 gdb_17774=T pbc="F F F"
O       -0.43560000       0.22380000       0.31590000
C        0.45050000       0.61740000      -0.39840000
C        1.40610000       1.74060000      -0.03870000
C        1.42060000       2.81700000      -1.11930000
C        2.57020000       3.83950000      -1.31500000
C        3.36500000       2.66320000      -1.91690000
N        1.96430000       2.44270000      -2.52530000
C        1.99390000       3.96820000      -2.74230000
H        0.62910000       0.16980000      -1.40010000
H        1.08850000       2.17080000       0.91620000
H        2.39680000       1.29440000       0.10750000
H        0.41480000       3.24540000      -1.20130000
H        2.90950000       4.62770000      -0.63390000
H        4.12380000       2.89550000      -2.66830000
H        3.70980000       1.85830000      -1.26730000
H        1.00190000       4.41170000      -2.86410000
H        2.67130000       4.27580000      -3.54260000
