21
Properties=species:S:1:pos:R:3 gdb_119406=T pbc="F F F"
C       -0.43060000       1.42660000      -0.39320000
O       -0.55310000       0.04280000      -0.62040000
C       -0.88600000      -0.67800000       0.54610000
C       -0.99300000      -2.13280000       0.17460000
C       -2.18520000      -2.74800000      -0.59770000
C       -1.71130000      -3.94820000       0.24700000
C       -0.34030000      -4.31000000      -0.36170000
C        0.23350000      -2.85840000      -0.42660000
O       -1.33360000      -3.00450000       1.30250000
H       -0.17510000       1.89320000      -1.34760000
H       -1.37110000       1.86440000      -0.02300000
H        0.36220000       1.65150000       0.33750000
H       -0.11170000      -0.55610000       1.32340000
H       -1.83890000      -0.32510000       0.97250000
H       -3.13990000      -2.35100000      -0.25050000
H       -2.14280000      -2.80670000      -1.68790000
H       -2.37180000      -4.74710000       0.58330000
H        0.23080000      -4.96200000       0.30240000
H       -0.42290000      -4.79240000      -1.33950000
H        0.46800000      -2.51700000      -1.43640000
H        1.11610000      -2.72400000       0.20320000
