16
Properties=species:S:1:pos:R:3 gdb_56443=T pbc="F F F"
N        0.06540000       1.48380000       0.00410000
C       -0.03070000       0.03550000       0.05540000
C        0.63500000      -0.66180000      -1.06820000
N        1.15800000      -1.18270000      -1.95920000
C        0.62680000      -0.45780000       1.37230000
O        1.46850000       0.20320000       1.93350000
N        0.11010000      -1.63450000       1.86090000
C        0.11890000      -2.94830000       1.23590000
C        0.88190000      -2.67100000       2.50080000
H        0.96880000       1.75430000       0.38430000
H       -0.00280000       1.82080000      -0.94940000
H       -1.08050000      -0.28030000       0.05770000
H       -0.81850000      -3.49500000       1.27980000
H        0.68630000      -3.06790000       0.31780000
H        1.96320000      -2.58860000       2.43850000
H        0.49450000      -3.03020000       3.44920000
