21
Properties=species:S:1:pos:R:3 gdb_64199=T pbc="F F F"
C       -0.34750000       1.50660000       0.20080000
C        0.00870000       0.03450000       0.05740000
C       -1.17700000      -0.81450000      -0.38080000
O        1.13110000      -0.12400000      -0.86460000
C        1.92580000      -0.80550000       0.12110000
C        0.85800000      -0.60260000       1.20330000
C        1.13530000       0.07170000       2.56090000
C        0.54980000      -1.21810000       3.16370000
O        0.34000000      -1.77800000       1.84880000
H        0.52090000       2.09510000       0.51000000
H       -0.69360000       1.89750000      -0.76130000
H       -1.14890000       1.65090000       0.93340000
H       -1.53170000      -0.47060000      -1.35750000
H       -0.89810000      -1.86710000      -0.45870000
H       -2.00020000      -0.73630000       0.33630000
H        2.09440000      -1.86180000      -0.12540000
H        2.89190000      -0.31280000       0.29140000
H        2.19120000       0.25130000       2.77260000
H        0.57230000       0.98500000       2.75810000
H        1.23870000      -1.82750000       3.75950000
H       -0.39220000      -1.10480000       3.71290000
