14
Properties=species:S:1:pos:R:3 gdb_33646=T pbc="F F F"
N       -0.10240000      -1.16680000       0.02850000
C       -0.05500000      -0.01080000       0.00660000
C       -0.02430000       1.41070000      -0.01150000
C       -0.73830000       2.48100000       0.79940000
C        0.61860000       3.06580000       1.13230000
N        1.25640000       2.22350000       0.00440000
C        1.07200000       3.08430000      -1.15030000
N       -0.11600000       3.22350000      -1.58430000
C       -0.92280000       2.37970000      -0.72670000
H       -1.58770000       2.36800000       1.46030000
H        0.77260000       4.14460000       1.03380000
H        1.00470000       2.71400000       2.08960000
H        1.92820000       3.63160000      -1.53020000
H       -1.89830000       2.07670000      -1.08230000
