14
Properties=species:S:1:pos:R:3 gdb_35658=T pbc="F F F"
C        0.07810000      -1.13430000       0.27960000
C        0.01620000       0.04970000       0.08660000
C       -0.04450000       1.49490000      -0.16050000
O       -0.73940000       2.19610000       0.87530000
C        0.15910000       3.00460000       1.62300000
C        1.45140000       2.97090000       0.83260000
C        1.33290000       2.11860000      -0.18590000
C        2.59280000       3.73560000       1.18490000
N        3.50410000       4.37680000       1.50060000
H        0.12500000      -2.18160000       0.45280000
H       -0.58240000       1.66910000      -1.10420000
H       -0.25380000       4.01710000       1.70960000
H        0.30220000       2.60820000       2.63910000
H        2.08860000       1.85910000      -0.91360000
