15
Properties=species:S:1:pos:R:3 gdb_1394=T pbc="F F F"
C       -0.05160000       1.57870000      -0.03140000
C       -0.03350000       0.03960000       0.00560000
C        0.76450000      -0.50370000       1.22870000
C        2.17050000      -0.12200000       1.20630000
C        3.32930000       0.19540000       1.16400000
C       -1.38760000      -0.50940000       0.01690000
C       -2.50290000      -0.95680000       0.05160000
H        0.97080000       1.96470000      -0.04700000
H       -0.57790000       1.93630000      -0.91970000
H       -0.56260000       1.97880000       0.84980000
H        0.47700000      -0.31980000      -0.89720000
H        0.29030000      -0.13920000       2.14810000
H        0.67860000      -1.59580000       1.24930000
H        4.35490000       0.46960000       1.14070000
H       -3.48780000      -1.35340000       0.06690000
