17
Properties=species:S:1:pos:R:3 gdb_29977=T pbc="F F F"
C       -0.10060000       1.59320000      -0.03570000
C        0.00580000       0.05880000       0.01440000
C        0.84600000      -0.52330000      -1.12390000
C        1.86540000      -1.27880000      -0.66020000
C        1.76810000      -1.24770000       0.78460000
C        0.71980000      -0.49210000       1.22080000
C        0.76150000      -0.55620000       2.64570000
C        1.83600000      -1.34840000       2.94250000
O        2.46930000      -1.78640000       1.80400000
H        0.89140000       2.05020000       0.01950000
H       -0.57930000       1.92060000      -0.96400000
H       -0.69660000       1.96710000       0.80230000
H       -1.00990000      -0.35880000      -0.05530000
H        0.62320000      -0.32560000      -2.16460000
H        2.60780000      -1.80560000      -1.24340000
H        0.10690000      -0.09490000       3.36930000
H        2.26960000      -1.68660000       3.86870000
