18
Properties=species:S:1:pos:R:3 gdb_28327=T pbc="F F F"
N       -0.00300000       1.39510000       0.08490000
C        0.00010000      -0.01330000       0.02810000
C       -1.09650000      -0.84420000      -0.06080000
N       -0.60400000      -2.14750000      -0.08660000
C       -1.13510000      -3.47380000       0.14950000
C        0.12670000      -4.32660000      -0.12290000
N        1.23400000      -3.42870000       0.27170000
C        0.74890000      -2.12500000       0.06600000
C        1.18530000      -0.82260000       0.12200000
H        0.77930000       1.79620000      -0.41780000
H       -0.85830000       1.79160000      -0.28400000
H       -2.14370000      -0.62920000      -0.19220000
H       -1.48390000      -3.58960000       1.18570000
H       -1.95980000      -3.72210000      -0.52450000
H        0.14150000      -5.24970000       0.46140000
H        0.16940000      -4.58620000      -1.19050000
H        2.10740000      -3.63090000      -0.19730000
H        2.19890000      -0.47220000       0.23500000
