20
Properties=species:S:1:pos:R:3 gdb_78926=T pbc="F F F"
C        0.05350000       1.62750000       0.04430000
C        0.04480000       0.10900000      -0.00780000
C        0.72880000      -0.65590000      -1.17370000
C        2.23330000      -0.34110000      -1.05830000
N        2.43520000      -0.34910000       0.44040000
C        1.01540000      -0.71440000       0.86200000
C        1.04780000      -1.85730000      -0.19460000
C        2.57490000      -1.60540000      -0.36220000
C        3.78170000      -2.47990000      -0.34770000
H        1.07230000       2.01460000      -0.05150000
H       -0.55180000       2.05520000      -0.76260000
H       -0.35430000       1.99210000       0.99340000
H       -0.96810000      -0.29110000       0.13060000
H        0.28320000      -0.77210000      -2.16030000
H        2.84910000       0.33430000      -1.63980000
H        0.90940000      -0.83360000       1.93980000
H        0.49540000      -2.79310000      -0.16590000
H        3.78730000      -3.16320000      -1.20440000
H        4.68830000      -1.86790000      -0.39040000
H        3.82390000      -3.08270000       0.56660000
