20
Properties=species:S:1:pos:R:3 gdb_72581=T pbc="F F F"
C       -0.09570000       1.57450000      -0.07970000
C        0.01650000       0.07180000       0.02230000
C        0.87500000      -0.70780000      -1.01990000
C        1.56700000      -1.49590000       0.12970000
C        0.72780000      -0.71900000       1.19490000
C        1.41650000      -0.11320000       2.39350000
C       -0.63790000      -1.40870000       1.39070000
O       -1.06340000      -2.29780000       2.08060000
N       -1.21700000      -0.63460000       0.40340000
H        0.89360000       2.03250000      -0.17830000
H       -0.68140000       1.86380000      -0.96070000
H       -0.58740000       1.99240000       0.80370000
H        0.29850000      -1.29740000      -1.73660000
H        1.56280000      -0.06560000      -1.57600000
H        1.43730000      -2.58030000       0.13410000
H        2.63490000      -1.27850000       0.21130000
H        2.31160000       0.44650000       2.10070000
H        0.75310000       0.56380000       2.94160000
H        1.72590000      -0.90320000       3.08650000
H       -2.04240000      -0.83470000      -0.14780000
