10
Properties=species:S:1:pos:R:3 gdb_1820=T pbc="F F F"
N       -0.05260000       1.28460000       0.00950000
C       -0.03080000       0.02330000       0.00330000
O        1.11190000      -0.75470000      -0.00720000
C        0.73770000      -2.09980000      -0.01130000
O        1.54000000      -2.98190000      -0.02040000
C       -0.74630000      -2.13630000      -0.00270000
C       -1.19370000      -0.87780000       0.00600000
H        0.89460000       1.66760000       0.00560000
H       -1.29670000      -3.06500000      -0.00390000
H       -2.20810000      -0.50740000       0.01390000
