22
Properties=species:S:1:pos:R:3 gdb_121477=T pbc="F F F"
C       -0.14330000       1.47870000      -0.06140000
C       -0.11230000      -0.02980000       0.09410000
O       -1.45480000      -0.51230000      -0.03990000
C       -1.61350000      -1.84490000       0.03030000
N       -2.75570000      -2.36540000      -0.06160000
C       -2.86540000      -3.81850000       0.00600000
C       -3.56610000      -4.22150000       1.30870000
C       -3.67400000      -4.25510000      -1.22980000
O       -4.92420000      -3.60200000      -1.28840000
H        0.86670000       1.88640000       0.03940000
H       -0.53530000       1.75620000      -1.04340000
H       -0.77990000       1.93080000       0.70370000
H        0.52400000      -0.48980000      -0.67390000
H        0.28470000      -0.31430000       1.07780000
H       -0.68050000      -2.41290000       0.17080000
H       -1.87480000      -4.30480000      -0.04100000
H       -3.01450000      -3.85190000       2.17780000
H       -4.57610000      -3.80630000       1.33300000
H       -3.63800000      -5.31160000       1.38180000
H       -3.07380000      -4.05640000      -2.13320000
H       -3.87140000      -5.33220000      -1.18930000
H       -4.72990000      -2.67120000      -1.11180000
