11
Properties=species:S:1:pos:R:3 gdb_1374=T pbc="F F F"
N        0.26020000       1.28950000       0.00520000
C        0.02140000       0.04640000       0.00200000
N       -1.25730000      -0.50970000       0.01090000
C       -2.49150000       0.13600000       0.02660000
O       -2.66180000       1.32910000       0.03560000
C       -3.59340000      -0.82220000       0.03130000
C       -4.52400000      -1.58370000       0.03570000
H        1.26730000       1.44430000      -0.00320000
H        0.77600000      -0.75030000      -0.00840000
H       -1.30040000      -1.51700000       0.00560000
H       -5.35840000      -2.24250000       0.03980000
