19
Properties=species:S:1:pos:R:3 gdb_91444=T pbc="F F F"
C       -0.00500000       1.53920000       0.05570000
C        0.00130000       0.03350000       0.00640000
C        0.71630000      -0.81670000      -1.11150000
C       -0.24640000      -1.96470000      -0.66410000
C        0.23290000      -2.22120000       0.78120000
C        0.43220000      -0.74150000       1.26840000
O        1.77850000      -0.41210000       1.56850000
C       -1.22630000      -0.80440000      -0.42040000
O       -2.37650000      -0.56920000      -0.64640000
H        0.98990000       1.92330000       0.29790000
H       -0.32130000       1.96540000      -0.90100000
H       -0.70020000       1.89560000       0.82360000
H        0.51220000      -0.44680000      -2.11780000
H        1.78280000      -0.98730000      -0.95950000
H       -0.48860000      -2.81740000      -1.29470000
H       -0.49560000      -2.77510000       1.37980000
H        1.18700000      -2.75610000       0.80360000
H       -0.21750000      -0.49780000       2.12050000
H        2.04330000      -0.90920000       2.34900000
