17
Properties=species:S:1:pos:R:3 gdb_56007=T pbc="F F F"
C       -0.22510000       1.39130000       0.33620000
C        0.06910000      -0.03440000      -0.06330000
O        1.09900000      -0.42350000      -0.54850000
O       -1.00390000      -0.82490000       0.20180000
C       -0.85290000      -2.24580000      -0.04050000
O       -0.48250000      -2.90120000       1.14120000
C       -1.59160000      -3.63220000       1.66580000
C       -2.63520000      -3.57050000       0.58820000
C       -2.20400000      -2.79540000      -0.39950000
H        0.59750000       2.03410000       0.02500000
H       -1.16260000       1.72650000      -0.11520000
H       -0.34840000       1.44860000       1.42190000
H       -0.05880000      -2.36100000      -0.78050000
H       -1.25890000      -4.65520000       1.88500000
H       -1.94210000      -3.18770000       2.60970000
H       -3.58630000      -4.08280000       0.65220000
H       -2.71850000      -2.53060000      -1.31270000
