23
Properties=species:S:1:pos:R:3 gdb_76759=T pbc="F F F"
C        0.58790000       1.63780000       0.01170000
C        0.14990000       0.18350000       0.13700000
C        0.81240000      -0.84840000      -0.84510000
O        1.60030000      -0.39150000      -1.91800000
C        1.46900000      -1.58260000       0.34650000
C        2.78160000      -0.95500000       0.89410000
C        1.97770000      -0.20760000       1.99660000
C        0.64750000      -0.67930000       1.35330000
C       -0.43010000      -1.21320000       2.27320000
H        1.67570000       1.76090000       0.04260000
H        0.24230000       2.05560000      -0.93900000
H        0.17010000       2.24780000       0.81970000
H       -0.94250000       0.14900000       0.06370000
H        0.04990000      -1.47960000      -1.31040000
H        2.34110000       0.10980000      -1.56300000
H        1.42660000      -2.67360000       0.34660000
H        3.50500000      -1.68170000       1.26920000
H        3.31830000      -0.30890000       0.19010000
H        2.12450000      -0.65570000       2.98390000
H        2.13660000       0.86970000       2.09250000
H       -0.87400000      -0.40590000       2.86980000
H       -1.24140000      -1.68750000       1.70890000
H       -0.02920000      -1.95680000       2.97140000
