18
Properties=species:S:1:pos:R:3 gdb_78096=T pbc="F F F"
C        0.09610000       1.57560000      -0.11780000
C        0.00250000       0.08750000       0.04890000
C       -1.32650000      -0.68530000       0.18320000
N       -0.70080000      -1.53420000       1.21270000
C       -0.93560000      -2.85690000       1.43030000
O       -1.93670000      -3.44810000       1.09000000
C        0.57880000      -0.85090000       1.13330000
C        1.10090000      -0.87650000      -0.28630000
O        0.84940000      -1.92990000      -1.16100000
H        1.12570000       1.92620000       0.00280000
H       -0.24090000       1.87740000      -1.11650000
H       -0.52570000       2.09810000       0.61700000
H       -2.13950000      -0.07620000       0.58900000
H       -1.66860000      -1.23760000      -0.69460000
H       -0.11240000      -3.32670000       2.01080000
H        1.17530000      -0.64570000       2.01540000
H        2.07650000      -0.39870000      -0.39780000
H        1.36900000      -2.69280000      -0.88500000
