16
Properties=species:S:1:pos:R:3 gdb_123580=T pbc="F F F"
C       -0.01400000       1.48230000       0.06960000
C        1.30520000       0.76030000       0.02020000
C        2.03300000       0.46060000       1.34470000
C        1.05540000      -0.44220000       2.05120000
N        1.03100000      -1.02260000       3.21790000
O       -0.15800000      -1.76780000       3.20510000
C       -0.79590000      -1.58480000       2.02420000
C       -0.07570000      -0.74810000       1.24260000
C       -0.00970000      -0.03130000      -0.04830000
H       -0.34470000       1.91670000       1.00790000
H       -0.30200000       2.04610000      -0.81140000
H        1.91010000       0.88110000      -0.87050000
H        2.98340000      -0.05370000       1.16500000
H        2.26000000       1.36680000       1.91540000
H       -1.72490000      -2.12210000       1.91640000
H       -0.35170000      -0.49220000      -0.96660000
