20
Properties=species:S:1:pos:R:3 gdb_22308=T pbc="F F F"
C        0.00590000       1.55300000       0.03700000
C        0.01540000       0.02350000      -0.00090000
C        0.71040000      -0.51320000      -1.26450000
C        0.94340000      -1.99820000      -1.21520000
C        0.89590000      -2.71990000      -0.08680000
C        0.65950000      -2.08620000       1.20740000
C        0.68000000      -0.57690000       1.25010000
N        0.45700000      -2.69360000       2.32170000
O        0.47500000      -4.09110000       2.18140000
H        1.02630000       1.95140000       0.08640000
H       -0.47060000       1.96900000      -0.85720000
H       -0.53920000       1.92440000       0.91090000
H       -1.02460000      -0.33030000      -0.02380000
H        0.12140000      -0.26070000      -2.15570000
H        1.67620000      -0.00040000      -1.40250000
H        1.15480000      -2.49670000      -2.15840000
H        1.03820000      -3.79300000      -0.10060000
H        1.72530000      -0.23520000       1.29110000
H        0.19500000      -0.23250000       2.16750000
H        0.33050000      -4.38290000       3.08710000
