16
Properties=species:S:1:pos:R:3 gdb_82010=T pbc="F F F"
N       -0.11120000       1.48150000       0.18300000
C       -0.00740000       0.04890000       0.04340000
C        0.87600000      -0.51330000       1.06270000
N        1.59330000      -0.98780000       1.83510000
C       -1.35180000      -0.69420000      -0.02910000
N       -2.00170000      -0.19420000      -1.26270000
C       -1.02730000      -1.31350000      -1.34050000
C        0.32910000      -0.61000000      -1.41400000
O        0.52590000       0.28300000      -2.45900000
H        0.76380000       1.92610000      -0.07820000
H       -0.82640000       1.81020000      -0.45840000
H       -1.93140000      -1.07260000       0.80250000
H       -2.94230000      -0.58060000      -1.30230000
H       -1.31320000      -2.27610000      -1.74410000
H        1.18780000      -1.28010000      -1.36270000
H       -0.33090000       0.70300000      -2.61730000
