21
Properties=species:S:1:pos:R:3 gdb_88388=T pbc="F F F"
C        0.09460000       1.54310000       0.03010000
C        0.00440000       0.01180000       0.09460000
C        0.62940000      -0.50050000       1.40890000
C       -1.45950000      -0.43430000       0.07920000
O       -2.40560000       0.30440000      -0.02580000
C        0.63810000      -0.58360000      -1.17580000
C        2.03490000      -1.17720000      -1.24090000
C        0.82620000      -2.04930000      -1.46260000
O        0.44070000      -2.97260000      -0.48140000
H        1.14070000       1.86010000      -0.02310000
H       -0.43410000       1.93290000      -0.84350000
H       -0.36070000       1.99590000       0.91500000
H        0.09750000      -0.07360000       2.26540000
H        0.59190000      -1.58850000       1.47810000
H        1.67420000      -0.18270000       1.48080000
H       -1.59180000      -1.53430000       0.16660000
H        0.35040000      -0.01620000      -2.05760000
H        2.67350000      -0.92530000      -2.08070000
H        2.55710000      -1.31880000      -0.30140000
H        0.61700000      -2.37450000      -2.48150000
H        1.06000000      -3.70990000      -0.50450000
