17
Properties=species:S:1:pos:R:3 gdb_67796=T pbc="F F F"
C       -0.02340000       1.55730000       0.01520000
C       -0.11640000       0.06860000      -0.15160000
C        0.71370000      -0.66760000      -1.12090000
C        0.16660000      -1.85330000      -1.43440000
C       -1.03850000      -2.12030000      -0.54490000
N       -0.38100000      -2.88560000       0.55600000
C       -0.01880000      -1.99640000       1.40530000
N       -0.46850000      -0.67330000       1.25910000
C       -1.33420000      -0.73500000       0.07160000
H        0.99200000       1.85980000       0.29090000
H       -0.27910000       2.05960000      -0.92480000
H       -0.70420000       1.90140000       0.79590000
H        1.66590000      -0.29330000      -1.47820000
H        0.61210000      -2.62030000      -2.05530000
H       -1.87280000      -2.66430000      -0.98630000
H        0.62190000      -2.22510000       2.25220000
H       -2.33330000      -0.31560000       0.15220000
