16
Properties=species:S:1:pos:R:3 gdb_44805=T pbc="F F F"
O       -0.10690000       0.00990000      -0.05100000
C       -0.04830000       1.19740000       0.04570000
C       -1.11790000       2.32510000       0.20290000
C        0.02420000       3.30370000      -0.09030000
O        0.97850000       3.11670000       0.95150000
C        1.06130000       2.23220000      -0.19220000
C        2.35530000       2.10860000      -0.89850000
C        3.33080000       3.22760000      -0.85930000
N        3.60340000       1.98630000      -0.12080000
H       -1.87850000       2.24500000      -0.57930000
H       -1.59150000       2.43700000       1.17970000
H        0.00580000       4.25810000      -0.60140000
H        2.31900000       1.46130000      -1.77090000
H        3.97270000       3.40420000      -1.71730000
H        3.05210000       4.11220000      -0.29480000
H        3.39350000       2.13460000       0.86460000
