20
Properties=species:S:1:pos:R:3 gdb_81182=T pbc="F F F"
C       -0.24190000       1.61750000       0.52810000
N       -0.16640000       0.15870000       0.51860000
C       -1.07290000      -0.62380000       1.45250000
C       -0.10430000      -1.81150000       1.23490000
C        0.75630000      -0.54810000       1.51150000
C        2.26310000      -0.43290000       1.44030000
C        2.78680000       0.91260000       1.89830000
O        3.48900000       1.63710000       1.24190000
C       -0.22230000      -0.21620000       2.68740000
H        0.65200000       2.01580000       0.03820000
H       -1.10780000       1.91730000      -0.07130000
H       -0.33280000       2.10390000       1.51170000
H       -2.15760000      -0.60930000       1.33920000
H       -0.09280000      -2.59100000       1.99880000
H       -0.05390000      -2.19590000       0.21580000
H        2.69410000      -1.19310000       2.10810000
H        2.61290000      -0.62630000       0.42220000
H        2.47400000       1.19860000       2.92930000
H       -0.28290000       0.81960000       3.02030000
H       -0.22160000      -0.89700000       3.54360000
