21
Properties=species:S:1:pos:R:3 gdb_35943=T pbc="F F F"
C        0.11050000      -1.29080000       0.17410000
C        0.04480000      -0.09370000       0.08570000
C       -0.03290000       1.36470000       0.00270000
C       -0.79780000       1.93690000       1.23000000
C       -1.32820000       3.36440000       1.04070000
C       -0.27750000       4.47440000       0.90030000
C        0.59960000       4.38230000      -0.36330000
C        1.61370000       3.26330000      -0.34660000
C        1.35330000       1.96780000      -0.18290000
H        0.16460000      -2.34890000       0.24180000
H       -0.63460000       1.61120000      -0.88730000
H       -1.64740000       1.27590000       1.43090000
H       -0.14200000       1.88330000       2.10660000
H       -1.98470000       3.38320000       0.15850000
H       -1.97100000       3.60140000       1.89700000
H       -0.80100000       5.43810000       0.88630000
H        0.37030000       4.48500000       1.78590000
H       -0.05750000       4.27770000      -1.24030000
H        1.12460000       5.33340000      -0.49780000
H        2.65380000       3.55340000      -0.47710000
H        2.17540000       1.25850000      -0.18440000
