14
Properties=species:S:1:pos:R:3 gdb_133757=T pbc="F F F"
C        0.16330000       1.40020000       0.09660000
O        0.05190000      -0.01330000      -0.00240000
C       -1.25070000      -0.52220000      -0.03780000
C       -1.20050000      -1.81860000      -0.86290000
O       -2.17210000      -2.42770000      -1.21070000
C       -1.78150000      -0.81920000       1.37500000
F       -1.74520000       0.28100000       2.14390000
F       -3.04420000      -1.24640000       1.32890000
F       -1.04050000      -1.75700000       1.97530000
H        1.22260000       1.63440000      -0.02460000
H       -0.40620000       1.89610000      -0.70230000
H       -0.18180000       1.77200000       1.06620000
H       -1.96470000       0.16610000      -0.51360000
H       -0.16240000      -2.12060000      -1.11380000
