16
Properties=species:S:1:pos:R:3 gdb_12755=T pbc="F F F"
O        0.00200000       1.40930000       0.04640000
C       -0.01450000       0.02970000       0.03430000
C       -0.35190000      -0.77990000      -1.18190000
C       -1.22110000      -0.89130000       0.05510000
C       -0.54050000      -1.80790000       1.07520000
C        0.70070000      -0.83170000       1.10300000
C        2.01880000      -1.35480000       0.79810000
C        3.10310000      -1.79320000       0.51490000
H        0.72530000       1.70900000      -0.51580000
H       -0.79050000      -0.19620000      -1.98500000
H        0.27250000      -1.61030000      -1.50340000
H       -2.27300000      -0.63720000       0.03390000
H       -1.04350000      -1.85380000       2.04260000
H       -0.32440000      -2.82320000       0.73250000
H        0.71610000      -0.28410000       2.04990000
H        4.06320000      -2.17920000       0.27720000
