20
Properties=species:S:1:pos:R:3 gdb_124510=T pbc="F F F"
C        0.14000000       1.52440000       0.20790000
C       -0.03980000       0.01760000      -0.05510000
C       -1.51730000      -0.38950000      -0.00080000
C        0.60750000      -0.37580000      -1.35310000
C        0.06370000      -0.86340000      -2.52090000
N        1.12110000      -1.02520000      -3.35420000
C        1.15080000      -1.51280000      -4.71740000
N        2.26400000      -0.66020000      -2.74250000
N        1.95680000      -0.26950000      -1.53960000
H        1.19670000       1.79870000       0.16430000
H       -0.39550000       2.11590000      -0.54320000
H       -0.25070000       1.79380000       1.19470000
H        0.49330000      -0.51860000       0.74110000
H       -2.09960000       0.13460000      -0.76780000
H       -1.64510000      -1.46590000      -0.15380000
H       -1.95000000      -0.13350000       0.97090000
H       -0.94290000      -1.10390000      -2.81760000
H        0.55390000      -0.87120000      -5.37180000
H        2.19100000      -1.49520000      -5.04220000
H        0.76940000      -2.53640000      -4.77170000
