23
Properties=species:S:1:pos:R:3 gdb_36967=T pbc="F F F"
C        0.19160000       1.38280000       0.00240000
C        0.16600000      -0.13860000       0.14350000
N       -1.19950000      -0.62140000       0.32270000
C       -1.94220000      -0.92090000      -0.89730000
C       -1.44240000      -2.01680000      -0.02180000
C        1.60890000       1.93940000      -0.12640000
N        1.58430000       3.38600000      -0.31790000
C        1.58960000       4.19660000       0.89560000
C        2.80160000       4.10590000       0.03520000
H       -0.38790000       1.68440000      -0.87760000
H       -0.30470000       1.82700000       0.87280000
H        0.65410000      -0.60520000      -0.73400000
H        0.74320000      -0.44410000       1.02570000
H       -2.99260000      -0.64450000      -0.89560000
H       -1.43510000      -0.77930000      -1.85120000
H       -0.60430000      -2.60460000      -0.39420000
H       -2.12030000      -2.55620000       0.63370000
H        2.20650000       1.65340000       0.76070000
H        2.10800000       1.49880000      -0.99910000
H        0.96230000       5.08320000       0.87900000
H        1.62340000       3.68010000       1.85420000
H        3.64150000       3.53040000       0.42250000
H        3.07670000       4.92450000      -0.62390000
