16
Properties=species:S:1:pos:R:3 gdb_45345=T pbc="F F F"
O        0.11910000       0.27320000      -1.04440000
C        0.06510000       1.22980000      -0.33380000
C       -1.05610000       1.89890000       0.48010000
C       -0.12200000       3.13480000       0.67060000
C        0.31390000       3.44990000       2.11260000
N        1.42600000       2.54130000       2.32370000
C        1.98410000       1.98930000       1.19840000
O        2.99610000       1.33210000       1.15120000
C        1.06180000       2.35350000       0.02090000
H       -1.98390000       2.06260000      -0.07380000
H       -1.29370000       1.36310000       1.40540000
H       -0.46180000       4.02020000       0.13540000
H        0.62340000       4.49850000       2.21930000
H       -0.49420000       3.26630000       2.83050000
H        1.92850000       2.48430000       3.19590000
H        1.64360000       2.76550000      -0.80450000
