19
Properties=species:S:1:pos:R:3 gdb_103508=T pbc="F F F"
C       -0.13180000       1.60510000       0.00930000
C       -0.01560000       0.07920000       0.05410000
C       -1.41480000      -0.57300000      -0.01930000
O       -2.07420000      -0.26450000      -1.22680000
N        0.74140000      -0.41810000      -1.12730000
C        1.66960000      -1.17550000      -0.70140000
N        1.79330000      -1.40760000       0.70070000
C        2.20230000      -0.15620000       1.40080000
C        0.76620000      -0.48430000       1.24790000
H        0.85000000       2.07670000      -0.07900000
H       -0.74200000       1.90390000      -0.84520000
H       -0.61200000       1.97490000       0.92120000
H       -1.30360000      -1.66120000       0.11550000
H       -2.04390000      -0.19660000       0.79560000
H       -1.43920000      -0.45360000      -1.92990000
H        2.36960000      -1.68460000      -1.35860000
H        2.69230000      -0.31880000       2.35550000
H        2.62800000       0.63440000       0.78980000
H        0.21460000      -0.85240000       2.10820000
