20
Properties=species:S:1:pos:R:3 gdb_6453=T pbc="F F F"
C       -0.91520000       1.01890000      -0.44630000
C        0.13470000      -0.05540000      -0.20770000
C        1.42650000      -0.03350000      -1.06880000
C        2.28870000      -0.32690000       0.21150000
C        3.55130000       0.49350000       0.42170000
C        1.02140000       0.04400000       1.06300000
C        2.56070000      -1.80820000       0.31720000
O        3.63610000      -2.30430000       0.54030000
H       -0.47030000       2.01960000      -0.39810000
H       -1.38090000       0.90810000      -1.43190000
H       -1.71110000       0.97130000       0.30530000
H       -0.33560000      -1.04340000      -0.26110000
H        1.49790000      -0.74520000      -1.89640000
H        1.64900000       0.96610000      -1.45460000
H        3.33300000       1.56270000       0.34150000
H        3.98440000       0.30100000       1.40790000
H        4.31290000       0.23840000      -0.32140000
H        1.10040000       1.07110000       1.43230000
H        0.77510000      -0.60690000       1.90690000
H        1.66100000      -2.45240000       0.16930000
