16
Properties=species:S:1:pos:R:3 gdb_113136=T pbc="F F F"
O        0.04560000       1.33200000      -0.45290000
C        0.04570000       0.12410000       0.28860000
C       -1.33520000      -0.49210000       0.29410000
N       -1.75270000      -1.06760000      -0.98270000
C       -1.55990000      -1.98430000       0.18510000
C       -0.44920000      -2.90300000       0.09400000
C        0.46460000      -3.68130000       0.04580000
C       -2.74400000      -2.51240000       0.81930000
C       -3.74230000      -2.94400000       1.33120000
H       -0.20690000       1.09640000      -1.35330000
H        0.77010000      -0.59910000      -0.10700000
H        0.34580000       0.38450000       1.30830000
H       -2.08390000       0.04240000       0.87440000
H       -2.75210000      -0.94230000      -1.12720000
H        1.27200000      -4.36930000      -0.00580000
H       -4.61790000      -3.33260000       1.78980000
