19
Properties=species:S:1:pos:R:3 gdb_58348=T pbc="F F F"
C        0.33520000      -0.15940000       1.76740000
N        0.05680000      -0.06790000       0.33880000
C        1.15920000      -0.55700000      -0.48520000
C       -1.25130000      -0.53780000      -0.05940000
C       -1.67080000       0.18160000      -1.34420000
O       -2.59570000      -0.12160000      -2.05890000
C       -1.45050000      -2.08470000      -0.06450000
N       -2.60060000      -2.51470000      -0.64310000
O       -0.64790000      -2.81670000       0.48270000
H        1.25150000       0.39930000       1.98620000
H       -0.48040000       0.30790000       2.33010000
H        0.45850000      -1.19200000       2.12110000
H        1.38850000      -1.61830000      -0.32150000
H        0.92270000      -0.41660000      -1.54640000
H        2.05370000       0.03620000      -0.26850000
H       -1.97700000      -0.16720000       0.68370000
H       -1.04970000       1.07810000      -1.54640000
H       -3.09030000      -1.89610000      -1.27650000
H       -2.72250000      -3.51220000      -0.72840000
