21
Properties=species:S:1:pos:R:3 gdb_107758=T pbc="F F F"
C       -0.01290000       1.53380000       0.05280000
C       -0.06900000       0.00240000       0.03260000
C       -1.46770000      -0.57000000      -0.05160000
C       -2.39440000      -0.18860000      -1.23900000
C       -3.63410000      -0.89110000      -0.70500000
C       -3.14630000      -2.11700000       0.07550000
C       -1.62750000      -2.11330000      -0.01380000
C       -3.46820000      -0.82840000       0.79540000
O       -2.25840000      -0.16130000       1.09010000
H        1.01440000       1.88040000       0.19960000
H       -0.37540000       1.96420000      -0.88610000
H       -0.62830000       1.92970000       0.86470000
H        0.51110000      -0.38660000      -0.81310000
H        0.40160000      -0.39310000       0.94080000
H       -2.52810000       0.89260000      -1.32850000
H       -2.03460000      -0.59060000      -2.19070000
H       -4.59970000      -0.85420000      -1.19080000
H       -3.73950000      -3.01490000       0.18360000
H       -1.23630000      -2.59480000      -0.91480000
H       -1.14640000      -2.54690000       0.86810000
H       -4.25800000      -0.68170000       1.51830000
