19
Properties=species:S:1:pos:R:3 gdb_118025=T pbc="F F F"
N       -1.07440000       1.59180000      -0.35340000
C       -0.11830000       0.49220000      -0.21590000
C       -0.82030000      -0.72670000       0.20770000
N       -1.35670000      -1.70650000       0.50320000
C        0.72990000       0.21660000      -1.48780000
O        1.27050000       1.47600000      -1.83840000
C        1.81650000      -0.84150000      -1.25920000
C        2.58920000      -1.19230000      -2.52560000
O        3.27650000      -0.01790000      -2.97480000
H       -0.55870000       2.37930000      -0.73870000
H       -1.77640000       1.34410000      -1.04670000
H        0.58420000       0.76750000       0.58190000
H        0.04140000      -0.14260000      -2.27490000
H        2.03790000       1.30450000      -2.40480000
H        2.51860000      -0.47490000      -0.50030000
H        1.35950000      -1.75940000      -0.87400000
H        3.30830000      -1.99640000      -2.31710000
H        1.89580000      -1.55320000      -3.29970000
H        3.63680000      -0.18140000      -3.85120000
