17
Properties=species:S:1:pos:R:3 gdb_32678=T pbc="F F F"
O        0.17850000       1.45050000      -0.15560000
C        0.03470000       0.07990000      -0.47470000
C       -1.29650000      -0.48040000       0.00060000
C       -1.45900000      -2.05480000       0.00200000
C       -1.59770000      -1.89510000       1.50550000
N       -1.89750000      -2.37700000       2.68600000
C       -1.92050000      -1.23410000       3.47460000
C       -1.66040000      -0.08240000       2.75430000
N       -1.42910000      -0.55620000       1.48160000
H        0.30630000       1.51650000       0.79660000
H        0.08270000       0.00610000      -1.56670000
H        0.85480000      -0.52530000      -0.05990000
H       -2.12870000       0.06040000      -0.45850000
H       -2.34670000      -2.41650000      -0.52120000
H       -0.58200000      -2.60370000      -0.35210000
H       -2.11900000      -1.30190000       4.53410000
H       -1.60790000       0.95410000       3.04060000
