27
Properties=species:S:1:pos:R:3 gdb_57519=T pbc="F F F"
C       -0.67210000       1.65110000      -1.54390000
C       -0.44860000       0.21550000      -1.02600000
C       -0.35780000       0.22360000       0.51100000
C       -1.68340000      -0.61930000      -1.43290000
C        0.77450000      -0.47120000      -1.70030000
C        2.23980000      -0.13700000      -1.33610000
C        3.15680000      -0.94130000      -2.27680000
C        2.61120000       1.35150000      -1.41760000
O        2.43150000      -0.60780000       0.00610000
H        0.11390000       2.34080000      -1.23060000
H       -0.72250000       1.67400000      -2.63880000
H       -1.62070000       2.04650000      -1.16330000
H       -1.28740000       0.61710000       0.93870000
H       -0.20300000      -0.78610000       0.90240000
H        0.47130000       0.83530000       0.87140000
H       -1.79200000      -0.66730000      -2.52260000
H       -1.60880000      -1.64600000      -1.05840000
H       -2.60050000      -0.18010000      -1.02580000
H        0.68140000      -1.54920000      -1.51980000
H        0.67050000      -0.33620000      -2.78460000
H        3.05650000      -0.61280000      -3.31640000
H        4.20660000      -0.81080000      -1.98790000
H        2.92050000      -2.00770000      -2.22370000
H        2.10580000       1.92830000      -0.64150000
H        3.69190000       1.47520000      -1.27410000
H        2.35830000       1.77930000      -2.39250000
H        3.34780000      -0.43500000       0.24750000
