14
Properties=species:S:1:pos:R:3 gdb_45952=T pbc="F F F"
N        0.00120000       1.27110000       0.21240000
C        0.02850000       0.01810000       0.13350000
O        1.16940000      -0.72680000      -0.03620000
C        0.92970000      -2.12830000       0.05320000
C       -0.56430000      -2.30170000       0.31390000
O       -1.11920000      -3.32940000       0.56900000
C       -1.18950000      -0.89790000       0.16690000
C       -2.20440000      -0.57790000       1.14860000
C       -3.04790000      -0.34700000       1.96980000
H        0.94430000       1.65950000       0.15510000
H        1.21940000      -2.62030000      -0.88270000
H        1.51560000      -2.56110000       0.87100000
H       -1.63150000      -0.88070000      -0.84270000
H       -3.79140000      -0.12720000       2.69560000
