16
Properties=species:S:1:pos:R:3 gdb_98038=T pbc="F F F"
C       -0.07680000       1.51740000       0.13610000
C        0.03620000       0.00600000      -0.04330000
C        0.75700000      -0.39390000      -1.31920000
O        1.19850000       0.40380000      -2.11610000
C        0.89000000      -1.82920000      -1.53460000
C        0.99770000      -3.01670000      -1.70850000
C        1.12520000      -4.45580000      -1.91370000
C        1.83380000      -4.81410000      -3.14920000
N        2.38800000      -5.11800000      -4.11490000
H        0.91190000       1.98190000       0.16850000
H       -0.62190000       1.96980000      -0.69590000
H       -0.60220000       1.75340000       1.06520000
H        0.56730000      -0.46350000       0.79610000
H       -0.95120000      -0.47560000      -0.05800000
H        1.65370000      -4.91020000      -1.06560000
H        0.13100000      -4.92070000      -1.93610000
