19
Properties=species:S:1:pos:R:3 gdb_57298=T pbc="F F F"
C        0.33820000       1.55120000       0.13140000
C        0.00960000       0.05500000       0.04030000
C        0.66540000      -0.72530000       1.19480000
O       -1.41720000      -0.02290000       0.14350000
C        0.45770000      -0.49330000      -1.25180000
C        0.80280000      -0.95420000      -2.31040000
C        1.25700000      -1.53910000      -3.56350000
C        2.14590000      -2.76650000      -3.34810000
O        3.09770000      -3.02740000      -4.03110000
H        1.41690000       1.71430000       0.07480000
H       -0.14590000       2.09120000      -0.68490000
H       -0.03460000       1.94420000       1.08140000
H        0.30420000      -0.33080000       2.14860000
H        0.40870000      -1.78770000       1.13570000
H        1.75510000      -0.63880000       1.16070000
H       -1.67220000      -0.93780000      -0.01730000
H        0.39300000      -1.87680000      -4.15700000
H        1.80560000      -0.82330000      -4.18450000
H        1.82810000      -3.41710000      -2.50420000
