19
Properties=species:S:1:pos:R:3 gdb_65497=T pbc="F F F"
C       -0.46430000       1.77580000       0.14940000
C        0.04420000       0.35210000      -0.00040000
C        0.78690000      -0.03670000      -1.29530000
C        1.95280000      -0.32810000      -0.36020000
C        2.88490000      -1.49110000      -0.31130000
C        3.41250000      -0.07370000      -0.51290000
O        1.23670000       0.10860000       0.80640000
C       -1.00920000      -0.65110000       0.45050000
O       -1.61740000      -1.39080000      -0.27750000
H        0.33720000       2.48250000      -0.08270000
H       -1.30510000       1.95650000      -0.52850000
H       -0.79860000       1.96240000       1.17550000
H        0.35450000      -0.89050000      -1.81850000
H        0.94530000       0.78960000      -1.99120000
H        3.05230000      -1.94920000       0.65750000
H        2.90130000      -2.17910000      -1.15040000
H        3.79080000       0.20920000      -1.49010000
H        3.92280000       0.38950000       0.32480000
H       -1.15700000      -0.65470000       1.55430000
