13
Properties=species:S:1:pos:R:3 gdb_26805=T pbc="F F F"
N        0.18830000       1.43160000      -0.09470000
C        0.02000000       0.04300000      -0.04590000
C       -1.08460000      -0.79280000      -0.07570000
O       -2.36950000      -0.37910000      -0.11920000
N       -0.72930000      -2.09510000      -0.07240000
C        0.60110000      -2.09540000      -0.03370000
N        1.09050000      -0.81990000      -0.02690000
C        1.44340000      -3.22940000       0.01280000
N        2.16650000      -4.13460000       0.04780000
H        0.30770000       1.84830000       0.82460000
H       -0.61390000       1.87060000      -0.53160000
H       -2.91770000      -1.17180000      -0.16900000
H        2.05950000      -0.54410000      -0.04630000
