16
Properties=species:S:1:pos:R:3 gdb_127926=T pbc="F F F"
C       -0.05870000       1.40210000      -0.09240000
N        0.12780000      -0.03320000      -0.05020000
C        0.69440000      -0.56980000       0.95530000
N        0.87980000      -1.95670000       0.94610000
N        1.37790000      -2.71130000       1.93950000
C        1.80230000      -2.06900000       2.98490000
N        2.43630000      -2.75890000       4.01810000
C        1.69730000      -0.62460000       3.03790000
N        1.17690000       0.08530000       2.10080000
H        0.43530000       1.80860000      -0.98420000
H       -1.12730000       1.62850000      -0.19960000
H        0.32280000       1.93100000       0.78840000
H        0.54900000      -2.46070000       0.13750000
H        2.33410000      -3.76150000       3.92350000
H        2.17210000      -2.45180000       4.94520000
H        2.08100000      -0.10410000       3.91810000
