17
Properties=species:S:1:pos:R:3 gdb_67214=T pbc="F F F"
C        0.03070000       1.56420000      -0.01660000
C        0.04420000       0.04590000       0.00270000
O       -1.25330000      -0.50390000       0.15910000
C        0.74580000      -0.72320000      -1.11210000
C        2.23060000      -0.81670000      -0.64880000
O        2.35190000      -0.10660000       0.58510000
C        1.06670000      -0.66600000       0.95510000
C        1.21850000      -1.79860000      -0.16280000
O        1.04380000      -3.14880000      -0.22590000
H        1.04810000       1.95450000      -0.08320000
H       -0.55300000       1.92960000      -0.86720000
H       -0.42510000       1.95930000       0.90060000
H       -1.64620000      -0.10400000       0.94310000
H        0.45810000      -0.81770000      -2.15150000
H        3.07550000      -0.86970000      -1.32240000
H        0.90370000      -0.75150000       2.02910000
H        1.76520000      -3.57460000       0.25230000
