17
Properties=species:S:1:pos:R:3 gdb_13344=T pbc="F F F"
N       -0.17090000       1.11760000      -0.61170000
C       -0.09320000      -0.06550000      -0.17970000
O       -1.19330000      -0.84930000      -0.16670000
C       -0.98820000      -2.20890000       0.23660000
C       -2.37450000      -2.87940000       0.28750000
C       -2.34500000      -3.87780000      -0.89450000
C       -1.11890000      -3.41890000      -1.69360000
O       -0.22120000      -2.90740000      -0.70030000
H        0.73630000       1.57300000      -0.53250000
H        0.80440000      -0.56000000       0.21230000
H       -0.43270000      -2.21950000       1.18040000
H       -2.53340000      -3.37880000       1.24490000
H       -3.14420000      -2.11530000       0.17070000
H       -2.19710000      -4.89920000      -0.53370000
H       -3.26190000      -3.85870000      -1.48730000
H       -0.59990000      -4.22050000      -2.22270000
H       -1.37890000      -2.62890000      -2.41040000
