17
Properties=species:S:1:pos:R:3 gdb_32437=T pbc="F F F"
C        0.04040000       1.39280000      -0.06810000
N       -0.15440000      -0.03860000       0.07410000
C        0.56600000      -0.67470000       1.09170000
C        1.24330000      -0.12770000       2.15840000
N        1.72140000      -1.18480000       2.93800000
C        1.37520000      -2.36490000       2.35900000
O        1.76220000      -3.54000000       2.91320000
C        0.65120000      -2.09790000       1.22410000
O        0.16890000      -3.05800000       0.35250000
H        1.09740000       1.68570000      -0.18490000
H       -0.52150000       1.75210000      -0.93380000
H       -0.34950000       1.90370000       0.81960000
H       -0.05000000      -0.53250000      -0.80340000
H        1.40190000       0.89300000       2.45710000
H        2.32660000      -1.10240000       3.73420000
H        1.44880000      -4.23550000       2.32260000
H       -0.79490000      -3.03920000       0.38420000
