20
Properties=species:S:1:pos:R:3 gdb_116083=T pbc="F F F"
C        0.04900000       1.56290000      -0.05520000
C       -0.00230000       0.03170000      -0.04200000
C       -1.42040000      -0.55070000       0.02310000
C       -1.40830000      -2.07510000      -0.08850000
O       -2.70230000      -2.60340000       0.11290000
C       -3.14270000      -2.40110000       1.44140000
C       -2.95790000      -0.98030000       1.97290000
O       -3.52940000      -0.60360000       2.97850000
N       -2.08610000      -0.19740000       1.27420000
H        1.07920000       1.91390000      -0.16310000
H       -0.53280000       1.97330000      -0.88750000
H       -0.33880000       1.99800000       0.87230000
H        0.47290000      -0.35020000      -0.95420000
H        0.57790000      -0.35550000       0.80450000
H       -2.00030000      -0.15680000      -0.82690000
H       -1.09430000      -2.37440000      -1.09180000
H       -0.69590000      -2.49800000       0.64050000
H       -4.20860000      -2.63520000       1.47460000
H       -2.62690000      -3.08220000       2.13900000
H       -2.02910000       0.75530000       1.60540000
