17
Properties=species:S:1:pos:R:3 gdb_47898=T pbc="F F F"
O       -0.07190000       0.62360000      -1.33680000
C       -0.03370000       1.34170000      -0.35640000
C       -1.40240000       1.80950000       0.17810000
O       -1.49910000       2.48330000       1.41200000
C       -0.82030000       3.71020000       1.51860000
O        0.12680000       3.66440000       2.54970000
C        0.88280000       2.45310000       2.58640000
C        1.70580000       2.23240000       1.34060000
C        1.29800000       1.77890000       0.14790000
H       -1.83610000       2.40800000      -0.63810000
H       -2.02140000       0.91320000       0.27010000
H       -0.35590000       3.96900000       0.55370000
H       -1.52540000       4.49690000       1.80870000
H        1.53970000       2.56260000       3.45120000
H        0.21510000       1.60510000       2.76470000
H        2.76170000       2.48030000       1.42720000
H        2.04560000       1.64310000      -0.63060000
