19
Properties=species:S:1:pos:R:3 gdb_84598=T pbc="F F F"
C       -0.17550000       1.55490000       0.05990000
C        0.03080000       0.03600000      -0.00890000
C        0.85880000      -0.44550000      -1.18380000
C        1.84300000      -1.27010000      -0.82090000
C        1.91800000      -1.42990000       0.65940000
C        2.22520000      -0.16410000       1.42060000
C        0.77300000      -0.56330000       1.20710000
C       -0.00240000      -0.95850000       2.34260000
C       -0.68210000      -1.27280000       3.28520000
H        0.77920000       2.08650000       0.11780000
H       -0.70720000       1.91550000      -0.82680000
H       -0.76860000       1.82150000       0.94000000
H       -0.96360000      -0.43030000      -0.05530000
H        0.64890000      -0.12650000      -2.19900000
H        2.54410000      -1.75070000      -1.49380000
H        2.16070000      -2.38660000       1.10740000
H        2.59360000      -0.26100000       2.43570000
H        2.61940000       0.67820000       0.86240000
H       -1.27430000      -1.55660000       4.11910000
