22
Properties=species:S:1:pos:R:3 gdb_76715=T pbc="F F F"
C        0.02490000       1.40360000       0.50550000
C        0.28620000      -0.08170000       0.36900000
C        0.48380000      -0.77070000      -0.94570000
C        0.42990000      -0.05410000      -2.27850000
N        1.59390000      -0.64430000       0.01070000
C        2.72430000       0.22990000      -0.26740000
C        3.85430000      -0.58180000      -0.92260000
C        5.14130000       0.20350000      -0.99770000
O        5.76130000       0.42770000      -2.00540000
H        0.43510000       1.78230000       1.44840000
H        0.44990000       1.99920000      -0.30410000
H       -1.05440000       1.58910000       0.52170000
H       -0.20330000      -0.66070000       1.15300000
H        0.12400000      -1.79760000      -1.01440000
H        0.71390000       0.99820000      -2.22440000
H        1.08590000      -0.54040000      -3.00900000
H       -0.58980000      -0.09820000      -2.67590000
H        2.49210000       1.09660000      -0.90330000
H        3.07510000       0.63020000       0.69260000
H        4.02910000      -1.47100000      -0.30200000
H        3.58010000      -0.91200000      -1.92810000
H        5.50060000       0.58490000      -0.01150000
