15
Properties=species:S:1:pos:R:3 gdb_130031=T pbc="F F F"
N        0.28760000       1.38250000      -0.11520000
C        0.09080000       0.01800000      -0.07300000
N       -1.06700000      -0.60780000       0.05470000
C       -0.69230000      -1.91690000       0.11620000
N        0.59980000      -2.15080000       0.02930000
N        1.11100000      -0.87800000      -0.08870000
C        2.53530000      -0.68480000      -0.05820000
C        3.12220000       0.08730000      -1.22190000
O        2.48890000       0.73440000      -2.01630000
H        0.90310000       1.66370000      -0.87080000
H       -0.59990000       1.86590000      -0.15620000
H       -1.40350000      -2.72350000       0.21900000
H        2.84940000      -0.15350000       0.85590000
H        2.99240000      -1.67740000      -0.01460000
H        4.23200000       0.04130000      -1.26680000
