25
Properties=species:S:1:pos:R:3 gdb_111848=T pbc="F F F"
C        0.10640000       1.41050000      -0.21580000
C        0.07580000      -0.06590000       0.20180000
C       -1.31830000      -0.65840000       0.11210000
C       -1.99160000      -1.19130000      -1.13970000
C       -1.16190000      -1.60080000      -2.34910000
C       -0.11040000      -2.61970000      -1.83400000
C       -0.61880000      -3.11380000      -0.45470000
C       -1.68620000      -2.12550000       0.01900000
C       -2.76120000      -2.67050000       0.93300000
H        1.11170000       1.83220000      -0.11610000
H       -0.20950000       1.53170000      -1.25710000
H       -0.56950000       2.01010000       0.40420000
H        0.79150000      -0.62590000      -0.40510000
H        0.42920000      -0.15450000       1.23800000
H       -2.01650000      -0.10560000       0.74150000
H       -3.01130000      -0.86680000      -1.32660000
H       -1.82480000      -2.07210000      -3.08390000
H       -0.69010000      -0.75210000      -2.85760000
H        0.01840000      -3.45080000      -2.53350000
H        0.87170000      -2.14960000      -1.74250000
H       -1.08870000      -4.09980000      -0.55300000
H        0.19990000      -3.23260000       0.26470000
H       -2.34370000      -2.99570000       1.89410000
H       -3.52470000      -1.91550000       1.14630000
H       -3.26340000      -3.53650000       0.48420000
