25
Properties=species:S:1:pos:R:3 gdb_109700=T pbc="F F F"
C        2.72630000       2.27760000      -0.63490000
C        1.40200000       1.50480000      -0.59620000
C        1.38960000       0.29830000      -1.51440000
C        1.92230000      -1.06710000      -1.10770000
C        2.52360000      -1.35300000       0.25160000
C        0.44190000      -0.84930000      -1.30040000
C       -0.64590000      -1.00630000      -0.22270000
C       -1.39030000      -1.98470000      -1.17900000
C       -0.44190000      -1.55760000      -2.33780000
H        3.56070000       1.64900000      -0.30750000
H        2.95180000       2.62050000      -1.65080000
H        2.69260000       3.15870000       0.01410000
H        1.18530000       1.19990000       0.43360000
H        0.58210000       2.17710000      -0.88380000
H        1.56460000       0.55560000      -2.55910000
H        2.40330000      -1.61850000      -1.91420000
H        2.02850000      -0.79520000       1.05090000
H        2.44070000      -2.41770000       0.49960000
H        3.58750000      -1.09190000       0.27790000
H       -0.33600000      -1.41360000       0.74370000
H       -1.20440000      -0.08230000      -0.03960000
H       -1.25420000      -3.03030000      -0.89200000
H       -2.45720000      -1.80460000      -1.32830000
H       -0.91600000      -0.86300000      -3.03970000
H        0.02380000      -2.36310000      -2.91390000
