19
Properties=species:S:1:pos:R:3 gdb_90727=T pbc="F F F"
O        0.77160000       0.67730000      -0.42430000
C        0.08680000      -0.34420000       0.25680000
C       -0.09900000      -0.19190000       1.79730000
C       -1.60480000      -0.51060000       1.64220000
C       -1.46400000      -0.43730000       0.07520000
C       -2.02020000      -1.87810000      -0.05980000
C       -1.95640000      -1.99720000       1.46960000
C       -1.60220000      -3.13890000       2.31690000
O       -2.95020000      -2.65440000       2.23290000
H        0.37330000       1.52030000      -0.18180000
H        0.59520000      -1.26970000      -0.03140000
H        0.49880000      -0.83410000       2.45030000
H        0.06230000       0.84930000       2.09790000
H       -2.32750000       0.06720000       2.21960000
H       -1.90870000       0.34910000      -0.53590000
H       -3.05810000      -1.89760000      -0.40500000
H       -1.43550000      -2.58780000      -0.65310000
H       -1.42860000      -4.11500000       1.86510000
H       -1.10720000      -2.97490000       3.27360000
