17
Properties=species:S:1:pos:R:3 gdb_105598=T pbc="F F F"
C        0.09940000       1.40120000       0.27190000
C       -0.16300000      -0.01540000      -0.24910000
C        0.78550000      -0.41100000      -1.38090000
O        2.19400000      -0.34830000      -1.03830000
C        2.42080000      -1.76250000      -1.20510000
C        0.95010000      -1.94690000      -1.58330000
O        0.23090000      -2.84840000      -1.87020000
C        0.51580000       0.34090000      -2.67720000
O       -0.58350000       0.63500000      -3.06510000
H        1.13250000       1.50170000       0.61540000
H       -0.07940000       2.14950000      -0.50590000
H       -0.56430000       1.62590000       1.11130000
H       -0.06610000      -0.74040000       0.56630000
H       -1.17850000      -0.10380000      -0.64820000
H        3.13370000      -1.99090000      -2.00780000
H        2.73900000      -2.26160000      -0.28190000
H        1.44130000       0.58140000      -3.24440000
