19
Properties=species:S:1:pos:R:3 gdb_26399=T pbc="F F F"
C        0.20790000       1.46580000       0.13850000
C        0.03370000      -0.04150000       0.29670000
O        0.04570000      -0.41220000       1.68670000
C       -1.23340000      -0.56260000      -0.40090000
C       -1.36820000      -2.05360000      -0.39100000
N       -1.83170000      -2.79360000      -1.37830000
C       -1.79090000      -4.08960000      -0.91600000
C       -1.29450000      -4.13210000       0.35990000
N       -1.03390000      -2.82140000       0.68700000
H        1.09460000       1.80500000       0.68060000
H        0.31750000       1.73960000      -0.91520000
H       -0.66440000       2.00280000       0.53200000
H        0.90610000      -0.55560000      -0.12160000
H       -0.62590000       0.11740000       2.13250000
H       -2.10590000      -0.09170000       0.07920000
H       -1.24770000      -0.24120000      -1.44620000
H       -2.11840000      -4.91540000      -1.52940000
H       -1.10350000      -4.94160000       1.04450000
H       -0.61110000      -2.44640000       1.52320000
