17
Properties=species:S:1:pos:R:3 gdb_124138=T pbc="F F F"
C       -0.02320000       1.50230000       0.06590000
C        0.01590000       0.04810000       0.05410000
C        0.05350000      -1.15840000       0.04450000
C        0.06190000      -2.57110000       0.03060000
C        1.15380000      -3.42230000       0.10630000
N        0.66230000      -4.67830000       0.05540000
N       -0.68390000      -4.72080000      -0.04920000
C       -1.06370000      -3.44870000      -0.06540000
C       -2.50370000      -3.06790000      -0.17290000
H        0.54990000       1.92640000      -0.76670000
H       -1.05170000       1.87020000      -0.02100000
H        0.39420000       1.90800000       0.99490000
H        2.20870000      -3.21620000       0.19000000
H        1.17540000      -5.54240000       0.08620000
H       -2.82120000      -2.47440000       0.69110000
H       -2.68590000      -2.45790000      -1.06410000
H       -3.12350000      -3.96490000      -0.22920000
