22
Properties=species:S:1:pos:R:3 gdb_121928=T pbc="F F F"
C        0.03300000       1.47760000       0.02950000
C       -0.01650000      -0.05270000      -0.00920000
O        0.60280000      -0.55500000      -1.18980000
C       -0.21440000      -0.58590000      -2.34780000
C        0.59450000      -1.25540000      -3.44810000
O        0.96330000      -2.57630000      -3.10500000
C        0.69950000      -0.66320000       1.18580000
C        1.17500000      -2.06400000       1.15860000
N        2.13990000      -0.94620000       1.11820000
H        1.07080000       1.82350000       0.02920000
H       -0.48020000       1.91500000      -0.83170000
H       -0.45550000       1.85220000       0.93460000
H       -1.06810000      -0.38220000       0.01150000
H       -1.12840000      -1.16610000      -2.14780000
H       -0.50870000       0.42770000      -2.65990000
H       -0.01210000      -1.31800000      -4.35730000
H        1.47650000      -0.63530000      -3.67360000
H        1.43640000      -2.51350000      -2.26810000
H        0.37780000      -0.24200000       2.13660000
H        1.19150000      -2.65180000       2.07180000
H        1.00320000      -2.63120000       0.24870000
H        2.43910000      -0.81680000       0.15360000
