21
Properties=species:S:1:pos:R:3 gdb_63579=T pbc="F F F"
C        0.01750000       1.54180000      -0.24250000
C        0.02540000       0.03990000      -0.06740000
O       -1.09180000      -0.60120000      -0.63540000
C        1.32630000      -0.72360000      -0.07070000
C        0.50610000      -0.58870000       1.21580000
C        0.99620000       0.23040000       2.42120000
C        0.90840000      -0.74060000       3.63190000
C        0.04120000      -1.86540000       3.11630000
C       -0.16400000      -1.78060000       1.80220000
H        0.88470000       2.00890000       0.23170000
H        0.04110000       1.80360000      -1.30780000
H       -0.89030000       1.97550000       0.18950000
H       -1.00300000      -0.54880000      -1.59370000
H        1.33180000      -1.69370000      -0.55710000
H        2.25800000      -0.16930000      -0.13860000
H        2.00420000       0.62940000       2.27890000
H        0.33080000       1.08490000       2.58570000
H        1.89840000      -1.11580000       3.92670000
H        0.49100000      -0.25470000       4.52130000
H       -0.33020000      -2.65820000       3.75590000
H       -0.73400000      -2.47170000       1.19530000
