15
Properties=species:S:1:pos:R:3 gdb_127516=T pbc="F F F"
C       -0.01280000       1.36000000      -0.04460000
N        0.02190000      -0.08800000       0.04140000
N        0.04600000      -0.81020000      -1.09500000
C        0.07610000      -2.08430000      -0.69570000
O        0.10610000      -3.09500000      -1.58430000
C        0.07210000      -2.20420000       0.69820000
C        0.03650000      -0.88820000       1.14840000
C        0.01610000      -0.37920000       2.51620000
O        0.02990000      -1.08700000       3.49870000
H        0.86580000       1.80570000       0.43090000
H       -0.01380000       1.61340000      -1.10390000
H       -0.91660000       1.76240000       0.42220000
H        0.10080000      -2.70390000      -2.46700000
H        0.09140000      -3.09390000       1.30330000
H       -0.01310000       0.72840000       2.61010000
