15
Properties=species:S:1:pos:R:3 gdb_4796=T pbc="F F F"
C       -0.60880000       0.60600000       0.28400000
O        0.59220000       0.81380000      -0.43970000
C        0.93680000      -0.19150000      -1.27390000
C        0.36000000      -1.40710000      -1.58040000
C        1.22460000      -2.01380000      -2.54750000
O        1.06070000      -3.23100000      -3.14670000
C        2.27480000      -1.17010000      -2.79370000
N        2.07850000      -0.04550000      -1.99470000
H       -1.46280000       0.48950000      -0.39510000
H       -0.53540000      -0.28370000       0.92210000
H       -0.75260000       1.49100000       0.90490000
H       -0.55230000      -1.81490000      -1.17550000
H        0.25340000      -3.62740000      -2.80940000
H        3.12330000      -1.26310000      -3.44780000
H        2.67640000       0.75960000      -1.94360000
