21
Properties=species:S:1:pos:R:3 gdb_56540=T pbc="F F F"
C       -0.05000000       1.53740000      -0.11710000
C        0.06520000       0.00350000      -0.02400000
C        0.84220000      -0.51380000      -1.15220000
C        1.50570000      -0.92090000      -2.06920000
C        0.68150000      -0.49330000       1.31740000
C       -0.06840000       0.03210000       2.55230000
C        0.63230000      -2.03040000       1.34030000
C        1.95120000      -2.76110000       1.46180000
O       -0.42880000      -2.60790000       1.27080000
H        0.92770000       2.01190000       0.01430000
H       -0.43330000       1.82550000      -1.09920000
H       -0.73250000       1.92810000       0.64120000
H       -0.94150000      -0.43090000      -0.07790000
H        2.06960000      -1.28750000      -2.89100000
H        1.72630000      -0.16460000       1.35640000
H       -1.11970000      -0.26660000       2.51230000
H        0.36080000      -0.38400000       3.46960000
H       -0.00930000       1.12030000       2.62660000
H        2.50050000      -2.41580000       2.34540000
H        1.78620000      -3.83770000       1.52050000
H        2.57030000      -2.52340000       0.58900000
