19
Properties=species:S:1:pos:R:3 gdb_40349=T pbc="F F F"
C       -0.05640000       1.46200000      -0.16390000
C        1.31380000       0.87810000       0.04700000
C        0.10580000      -0.02790000       0.03410000
C       -0.36820000      -0.67950000       1.28360000
C       -1.74400000      -1.42110000       1.41810000
C       -0.87480000      -2.12040000       2.50050000
O        0.26560000      -1.97920000       1.59640000
C       -0.63210000      -0.96500000       3.49170000
C       -0.28530000       0.02090000       2.66430000
H       -0.49820000       2.03710000       0.64270000
H       -0.32540000       1.81200000      -1.15400000
H        1.99080000       0.82840000      -0.79810000
H        1.80320000       1.04910000       0.99940000
H       -0.01990000      -0.64750000      -0.84830000
H       -2.62090000      -0.84930000       1.72890000
H       -1.95310000      -2.06620000       0.56070000
H       -1.04590000      -3.13230000       2.86400000
H       -0.73890000      -0.98410000       4.56620000
H       -0.02120000       1.04870000       2.86500000
