13
Properties=species:S:1:pos:R:3 gdb_132768=T pbc="F F F"
C       -0.01610000       1.54890000       0.00620000
C        0.00260000       0.04770000       0.01270000
C        0.10270000      -0.72140000      -1.14530000
F        0.18480000      -0.08360000      -2.30400000
N        0.12350000      -2.03630000      -1.19570000
C        0.03920000      -2.64750000      -0.01370000
N       -0.06110000      -2.06050000       1.17700000
C       -0.07640000      -0.74230000       1.15670000
F       -0.17580000      -0.14240000       2.33440000
H        0.89800000       1.94980000      -0.44290000
H       -0.85670000       1.92720000      -0.58390000
H       -0.10260000       1.93580000       1.02160000
H        0.05390000      -3.73320000      -0.02370000
