14
Properties=species:S:1:pos:R:3 gdb_128758=T pbc="F F F"
C        0.02440000       1.37690000       0.04990000
O       -0.23960000      -0.01620000      -0.13620000
C        0.49380000      -0.63470000      -1.05560000
N        0.38050000      -1.89130000      -1.21190000
C        1.08890000      -2.47880000      -2.24240000
N        1.38790000      -1.91450000      -3.39170000
O        2.05830000      -2.86810000      -4.10870000
N        2.17200000      -4.03720000      -3.40520000
C        1.57850000      -3.82000000      -2.26840000
H        1.00230000       1.52900000       0.51870000
H       -0.01820000       1.91740000      -0.90150000
H       -0.75740000       1.74710000       0.71260000
H        1.16990000       0.00210000      -1.63950000
H        1.51120000      -4.58060000      -1.50690000
