23
Properties=species:S:1:pos:R:3 gdb_64144=T pbc="F F F"
C        0.07540000       1.43550000      -0.22030000
C       -0.04190000      -0.07930000       0.03080000
C       -1.51840000      -0.46100000       0.18450000
C        0.65770000      -0.87570000      -1.09600000
C        2.16600000      -0.87350000      -0.74940000
C        2.26630000      -0.52880000       0.77210000
C        0.79700000      -0.49440000       1.26230000
C        3.07510000      -1.55250000       1.53000000
O        4.02940000      -1.32160000       2.22580000
H        1.11370000       1.75260000      -0.35900000
H       -0.47990000       1.72230000      -1.11980000
H       -0.33550000       2.00500000       0.62050000
H       -2.08500000      -0.21740000      -0.72110000
H       -1.63320000      -1.53410000       0.37260000
H       -1.98320000       0.07740000       1.01790000
H        0.27710000      -1.90350000      -1.09850000
H        0.45620000      -0.46010000      -2.08830000
H        2.62350000      -1.84360000      -0.97230000
H        2.71960000      -0.13320000      -1.33210000
H        2.74750000       0.43990000       0.92450000
H        0.66290000       0.16900000       2.12190000
H        0.49040000      -1.50070000       1.57980000
H        2.70330000      -2.59910000       1.39540000
