17
Properties=species:S:1:pos:R:3 gdb_10512=T pbc="F F F"
O        0.45090000       1.04090000       0.44140000
C        0.09920000      -0.07510000      -0.34840000
C       -1.35780000      -0.50600000      -0.15510000
C       -2.38950000       0.03380000      -1.12860000
C       -2.51020000       1.53610000      -1.21890000
O       -1.76450000       2.34660000      -0.72060000
C       -1.61080000      -1.82760000       0.48580000
N       -1.83690000      -0.58420000       1.23310000
H       -0.17150000       1.74500000       0.20090000
H        0.28950000       0.10460000      -1.41940000
H        0.76670000      -0.88480000      -0.03590000
H       -2.19680000      -0.32110000      -2.15400000
H       -3.38580000      -0.34930000      -0.87270000
H       -3.37630000       1.88470000      -1.82280000
H       -2.51130000      -2.38970000       0.24920000
H       -0.74890000      -2.44380000       0.72850000
H       -1.05680000      -0.37670000       1.85360000
