20
Properties=species:S:1:pos:R:3 gdb_119797=T pbc="F F F"
C       -0.04510000       1.40090000      -0.06680000
O        0.01880000      -0.00080000       0.02860000
C        0.59310000      -0.60090000      -1.10760000
C        0.61150000      -2.08650000      -0.96000000
C        0.09840000      -2.80340000       0.04450000
C        0.23370000      -4.26290000      -0.22580000
N       -0.51410000      -4.68900000      -1.44880000
C        0.92940000      -4.38150000      -1.53530000
C        1.22770000      -2.97110000      -2.03390000
H        0.95530000       1.85090000      -0.17170000
H       -0.65720000       1.72570000      -0.92350000
H       -0.50290000       1.77060000       0.85380000
H        0.03080000      -0.32250000      -2.01930000
H        1.62290000      -0.22530000      -1.26550000
H       -0.39190000      -2.38690000       0.91370000
H        0.36100000      -4.98010000       0.57810000
H       -0.61660000      -5.70310000      -1.42520000
H        1.62240000      -5.18730000      -1.75150000
H        0.78640000      -2.78900000      -3.02160000
H        2.30860000      -2.79760000      -2.12860000
