18
Properties=species:S:1:pos:R:3 gdb_96804=T pbc="F F F"
C       -0.03470000       1.41510000      -0.01080000
N       -0.03520000      -0.03980000       0.01070000
C        0.55920000      -0.61470000       0.96800000
N        1.24030000      -0.09800000       2.05320000
C        1.72590000      -1.08400000       2.90080000
N        2.36950000      -0.85750000       3.96230000
O        1.38050000      -2.29230000       2.37960000
C        0.65370000      -2.12350000       1.14040000
C       -0.69620000      -2.81880000       1.20590000
H        0.98150000       1.82690000      -0.10780000
H       -0.61550000       1.76640000      -0.86650000
H       -0.48410000       1.84790000       0.89650000
H        1.37270000       0.87570000       2.26510000
H        2.62370000      -1.73120000       4.41760000
H        1.26580000      -2.55040000       0.33780000
H       -1.29170000      -2.42530000       2.03440000
H       -1.23320000      -2.63580000       0.27200000
H       -0.56700000      -3.89520000       1.34360000
