18
Properties=species:S:1:pos:R:3 gdb_54134=T pbc="F F F"
C       -0.11750000       1.56320000      -0.23580000
C        0.04970000       0.04740000      -0.13120000
C        1.36910000      -0.45830000      -0.82130000
C        2.01370000      -0.49730000       0.56840000
O        3.14300000      -0.50200000       0.96110000
C        0.64740000      -0.39420000       1.25470000
C       -1.16350000      -0.79770000      -0.52650000
N       -2.28130000      -0.13480000      -0.93100000
O       -1.11990000      -2.01500000      -0.47560000
H        0.80380000       2.07040000       0.06820000
H       -0.33200000       1.87770000      -1.26340000
H       -0.91600000       1.92920000       0.41940000
H        1.23770000      -1.47280000      -1.20980000
H        1.83120000       0.17780000      -1.58000000
H        0.55220000       0.29150000       2.10000000
H        0.28420000      -1.38810000       1.53350000
H       -2.33930000       0.86500000      -0.98640000
H       -3.08190000      -0.68510000      -1.19540000
