16
Properties=species:S:1:pos:R:3 gdb_49467=T pbc="F F F"
O       -0.49640000       0.49650000       0.74010000
C        0.02070000       1.16960000      -0.12220000
C        1.27020000       1.96840000      -0.00110000
C        1.60920000       2.84170000       1.16680000
C        1.12700000       2.26580000       2.51210000
C        2.00160000       1.02440000       2.13980000
N        2.45790000       1.65780000       0.84780000
C        1.55360000       3.01310000       3.67710000
C        1.91760000       3.63500000       4.63950000
H       -0.44400000       1.24760000      -1.13030000
H        1.60160000       2.36860000      -0.95630000
H        1.94540000       3.86240000       1.01340000
H        0.05450000       2.06160000       2.55420000
H        2.87160000       0.91480000       2.78720000
H        1.47770000       0.07710000       2.02850000
H        2.23150000       4.18100000       5.49440000
