13
Properties=species:S:1:pos:R:3 gdb_128629=T pbc="F F F"
C       -0.03530000       1.37500000       0.04600000
O        0.03170000      -0.05670000      -0.05310000
C        0.63670000      -0.55690000      -1.11210000
N        1.15020000       0.20980000      -2.02580000
C        1.76140000      -0.40960000      -3.09310000
O        2.29150000       0.12470000      -4.03310000
N        1.72490000      -1.82750000      -3.01010000
N        1.18060000      -2.55290000      -2.04240000
N        0.62270000      -1.95330000      -1.06860000
H        0.96930000       1.80260000       0.07200000
H       -0.57590000       1.79120000      -0.80680000
H       -0.56610000       1.57080000       0.97680000
H        2.15210000      -2.36290000      -3.75480000
