19
Properties=species:S:1:pos:R:3 gdb_76132=T pbc="F F F"
C       -0.08720000       1.49330000       0.12710000
C        0.02430000       0.00620000      -0.12930000
O        1.09010000      -0.49340000      -0.47460000
C       -1.20760000      -0.79210000       0.02080000
C       -1.31800000      -2.11930000      -0.78030000
O       -0.29950000      -2.50920000      -1.62480000
C       -1.21790000      -2.17530000       0.70660000
C       -0.00550000      -2.72930000       1.41280000
O       -2.43000000      -2.34570000       1.39960000
H        0.88300000       1.97020000      -0.01530000
H       -0.82120000       1.93790000      -0.55460000
H       -0.44890000       1.67520000       1.14520000
H       -2.12700000      -0.23770000       0.16860000
H       -2.30090000      -2.31070000      -1.20230000
H        0.48710000      -1.98200000      -1.39040000
H        0.91740000      -2.50180000       0.88020000
H        0.05990000      -2.31940000       2.42500000
H       -0.09310000      -3.81940000       1.49110000
H       -2.64560000      -3.28560000       1.38010000
