17
Properties=species:S:1:pos:R:3 gdb_20149=T pbc="F F F"
C        0.04250000       1.54200000       0.02830000
C        0.01050000       0.01890000      -0.01880000
C        0.78510000      -0.60330000      -1.17160000
C        2.22380000      -0.78930000      -0.74110000
C        1.27240000      -1.96960000      -0.75650000
C        1.19660000      -1.90880000       0.79890000
C        2.13160000      -0.75170000       0.81170000
N        0.70540000      -0.56670000       1.14280000
H        1.07440000       1.90700000       0.01290000
H       -0.48230000       1.96840000      -0.83240000
H       -0.43690000       1.90850000       0.94020000
H       -1.02660000      -0.33780000      -0.00430000
H        0.55070000      -0.40120000      -2.20980000
H        3.09270000      -0.59120000      -1.35120000
H        1.27320000      -2.85250000      -1.37870000
H        1.04900000      -2.73210000       1.48570000
H        2.89480000      -0.44170000       1.51340000
