17
Properties=species:S:1:pos:R:3 gdb_125671=T pbc="F F F"
C       -0.22020000       1.43210000       0.00830000
C       -0.05260000      -0.05390000       0.02880000
N        0.02970000      -0.74810000      -1.10420000
N        0.17110000      -2.03000000      -0.71150000
C        0.18090000      -2.17240000       0.63470000
C        0.03820000      -0.90740000       1.16260000
C       -0.00560000      -0.52150000       2.61870000
C       -1.30240000       0.00430000       3.04930000
C       -2.36720000       0.44180000       3.39460000
H        0.63170000       1.93900000       0.47720000
H       -0.30140000       1.78260000      -1.02250000
H       -1.11710000       1.73560000       0.55820000
H        0.25480000      -2.74780000      -1.41020000
H        0.28400000      -3.13680000       1.10780000
H        0.25090000      -1.39190000       3.23440000
H        0.76630000       0.23070000       2.83240000
H       -3.30930000       0.82290000       3.70190000
