15
Properties=species:S:1:pos:R:3 gdb_5334=T pbc="F F F"
N        0.12150000       1.38340000       0.27160000
C       -0.03800000       0.02320000       0.00580000
C       -1.19950000      -0.73550000       0.06320000
N       -0.73200000      -2.03560000      -0.08000000
C       -0.86550000      -3.37420000      -0.70420000
C        0.70520000      -3.37700000      -0.84240000
C        0.59490000      -1.96040000      -0.31090000
N        1.08470000      -0.74370000      -0.27470000
H        0.98080000       1.73080000      -0.13400000
H       -0.66520000       1.94980000      -0.01500000
H       -2.21050000      -0.47900000       0.32780000
H       -1.31340000      -4.12550000      -0.04910000
H       -1.38940000      -3.35330000      -1.66380000
H        1.23130000      -4.09870000      -0.21290000
H        1.06310000      -3.46580000      -1.87070000
