15
Properties=species:S:1:pos:R:3 gdb_49685=T pbc="F F F"
O        0.07760000       0.08180000      -0.53750000
C        0.01260000       1.17230000      -0.03260000
N        1.05460000       1.80710000       0.63850000
C        1.67900000       3.03390000       0.17170000
C        2.23850000       3.90120000       1.29240000
N        3.21000000       3.02270000       1.92280000
C        3.42970000       1.81140000       1.31440000
O        4.25710000       0.98770000       1.62590000
C        2.43230000       1.73620000       0.17050000
H       -0.91740000       1.77050000       0.01650000
H        1.32080000       3.49110000      -0.74420000
H        2.71240000       4.80110000       0.87890000
H        1.45320000       4.21380000       1.99060000
H        3.70750000       3.26420000       2.76440000
H        2.65280000       1.14880000      -0.71190000
