16
Properties=species:S:1:pos:R:3 gdb_54783=T pbc="F F F"
N        0.60390000       0.38000000      -0.81380000
C       -0.02970000       0.04590000       0.34030000
O        0.26510000       0.51130000       1.42700000
C       -1.16690000      -0.97100000       0.22630000
C       -2.21170000      -0.80180000      -0.93330000
O       -1.22680000      -1.41620000      -1.84230000
C       -0.94550000      -2.24880000      -0.65860000
C       -2.28540000      -2.97910000      -0.47710000
C       -3.15550000      -1.98470000      -0.66580000
H        1.35580000       1.04720000      -0.76960000
H        0.31600000      -0.03760000      -1.68510000
H       -1.56340000      -1.12770000       1.22810000
H       -2.59790000       0.16040000      -1.26490000
H       -0.00770000      -2.79970000      -0.70290000
H       -2.43270000      -4.02390000      -0.24950000
H       -4.23440000      -1.96490000      -0.64040000
