20
Properties=species:S:1:pos:R:3 gdb_69723=T pbc="F F F"
C        0.00570000       1.49370000       0.01300000
C       -0.00700000      -0.01370000       0.00630000
C       -0.89120000      -0.82140000       0.92610000
C        0.61180000      -0.88350000       1.08530000
C        1.35250000      -1.88580000       0.22650000
C        0.50840000      -2.29360000      -1.01140000
C        1.82350000      -2.31350000      -1.79360000
N        2.01460000      -1.06870000      -0.93080000
C        0.51050000      -0.75530000      -1.21700000
H        0.97850000       1.87460000      -0.31610000
H       -0.76110000       1.90520000      -0.65430000
H       -0.18670000       1.88620000       1.01650000
H       -1.42910000      -0.26150000       1.68510000
H       -1.43140000      -1.68580000       0.55480000
H        1.08680000      -0.46360000       1.96400000
H        2.01360000      -2.61230000       0.70270000
H       -0.33680000      -2.99000000      -1.06420000
H        2.53980000      -3.11160000      -1.57690000
H        1.78860000      -2.10370000      -2.86670000
H        0.31780000      -0.33160000      -2.20530000
