19
Properties=species:S:1:pos:R:3 gdb_108328=T pbc="F F F"
O       -0.03620000       1.49160000       0.29410000
C        0.05890000       0.07690000       0.18290000
C       -1.28330000      -0.55330000      -0.10010000
C       -2.35850000      -0.50370000       1.00000000
O       -2.67130000      -1.91530000       0.82510000
C       -1.59050000      -2.08320000      -0.12030000
C       -2.13980000      -1.97810000      -1.56750000
O       -3.44550000      -2.44390000      -1.73320000
C       -1.89260000      -0.42700000      -1.53000000
H       -0.32070000       1.83490000      -0.55950000
H        0.78950000      -0.21810000      -0.58750000
H        0.44580000      -0.26870000       1.14820000
H       -1.96700000      -0.31460000       2.00680000
H       -3.22840000       0.13830000       0.82280000
H       -0.91160000      -2.89340000       0.15870000
H       -1.50500000      -2.47810000      -2.30550000
H       -3.86280000      -2.34140000      -0.86440000
H       -2.80230000       0.17470000      -1.60350000
H       -1.18190000      -0.08440000      -2.28880000
