15
Properties=species:S:1:pos:R:3 gdb_29893=T pbc="F F F"
C       -0.01770000       1.46580000       0.00220000
N       -0.00090000       0.00730000      -0.01050000
C       -0.12850000      -0.72360000      -1.16180000
N       -0.12450000      -2.00260000      -1.26180000
C        0.02410000      -2.75020000      -0.08940000
N        0.04860000      -4.01920000      -0.01650000
N        0.15630000      -2.01380000       1.10040000
C        0.15380000      -0.65070000       1.22260000
O        0.27000000      -0.04660000       2.26460000
H        0.91700000       1.85390000       0.41290000
H       -0.14250000       1.82090000      -1.02180000
H       -0.84100000       1.83190000       0.61950000
H       -0.24310000      -0.12450000      -2.06370000
H       -0.05800000      -4.40240000      -0.95420000
H        0.26450000      -2.54080000       1.95550000
