18
Properties=species:S:1:pos:R:3 gdb_108908=T pbc="F F F"
O        0.03860000       1.40270000       0.03320000
C        0.01320000      -0.01200000       0.01750000
C       -1.40150000      -0.47940000       0.01810000
C       -2.49920000       0.27840000       0.03360000
N       -3.67230000      -0.49200000       0.01860000
C       -3.32890000      -1.92340000       0.08510000
C       -1.78010000      -1.94610000      -0.04110000
C       -4.93730000       0.01110000      -0.01250000
O       -5.21860000       1.19170000      -0.04030000
H        0.95620000       1.68820000       0.04640000
H        0.53210000      -0.41520000      -0.87220000
H        0.54150000      -0.43410000       0.89240000
H       -2.59090000       1.35220000       0.04850000
H       -3.65700000      -2.34670000       1.04040000
H       -3.82390000      -2.47740000      -0.71680000
H       -1.45530000      -2.40650000      -0.98370000
H       -1.32160000      -2.53300000       0.76320000
H       -5.69750000      -0.79530000      -0.01200000
