17
Properties=species:S:1:pos:R:3 gdb_42981=T pbc="F F F"
O        0.10820000       0.12050000       0.34280000
C        0.02570000       1.30970000       0.14070000
C       -1.19550000       2.11310000      -0.15710000
C       -1.34830000       3.34050000       0.69100000
N       -0.78870000       3.45520000      -0.64360000
C        0.70010000       3.50670000      -0.65090000
C        1.20040000       2.25450000       0.05180000
C        2.25770000       2.15140000       1.10340000
N        2.51200000       1.67860000      -0.25420000
H       -2.05660000       1.63150000      -0.60620000
H       -2.34450000       3.75470000       0.81510000
H       -0.69360000       3.45350000       1.55300000
H        1.03260000       3.50680000      -1.69330000
H        1.03300000       4.43930000      -0.18670000
H        2.79520000       3.05220000       1.38870000
H        2.11060000       1.41930000       1.89340000
H        2.39960000       0.66300000      -0.27600000
