14
Properties=species:S:1:pos:R:3 gdb_19679=T pbc="F F F"
N       -0.03150000      -1.18230000      -0.00070000
C       -0.00990000      -0.02690000       0.02550000
C        0.00490000       1.43430000       0.08110000
C       -0.26610000       2.14990000       1.42390000
C        0.80620000       1.53740000       2.36370000
C        1.82680000       2.19040000       1.43450000
C        0.83550000       3.16590000       0.92910000
N        1.34710000       2.11100000       0.00310000
H       -0.60850000       1.83240000      -0.73140000
H       -1.27720000       2.35680000       1.76530000
H        0.80480000       2.03290000       3.33730000
H        0.81350000       0.45150000       2.49240000
H        2.89610000       2.29570000       1.55490000
H        0.85490000       4.22510000       0.71340000
