17
Properties=species:S:1:pos:R:3 gdb_5526=T pbc="F F F"
C       -0.32940000       1.56270000      -0.02720000
C        0.03110000       0.06590000       0.03090000
C        0.77980000      -0.43960000      -1.15710000
C        2.10280000      -0.77240000      -1.34620000
N        3.14170000      -0.75680000      -0.39920000
N        2.32560000      -1.21930000      -2.62640000
C        1.15510000      -1.15960000      -3.22470000
N        0.19270000      -0.68580000      -2.39360000
H        0.57030000       2.17940000      -0.11560000
H       -0.96470000       1.78560000      -0.89120000
H       -0.86980000       1.87200000       0.87340000
H        0.64750000      -0.12880000       0.91550000
H       -0.88860000      -0.51870000       0.17400000
H        3.25350000       0.14390000       0.04970000
H        4.01170000      -1.00480000      -0.85500000
H        0.95270000      -1.44250000      -4.24670000
H       -0.77910000      -0.55620000      -2.61880000
