18
Properties=species:S:1:pos:R:3 gdb_47438=T pbc="F F F"
O       -0.35150000       0.12780000       0.64600000
C       -0.20810000       1.25170000       0.24820000
C       -1.30950000       2.20510000      -0.22180000
O       -0.64910000       3.35010000      -0.72150000
C        0.59250000       3.47190000      -0.02630000
C        1.11430000       2.03620000       0.13690000
C        2.06060000       1.78500000       1.28230000
C        2.99180000       0.63410000       1.25090000
N        3.50960000       2.01000000       1.13630000
H       -1.92690000       1.76140000      -1.00800000
H       -1.96180000       2.44010000       0.63680000
H        1.24000000       4.11930000      -0.62040000
H        0.44470000       3.93920000       0.96130000
H        1.57940000       1.71410000      -0.80640000
H        1.67800000       2.10180000       2.25120000
H        3.25120000       0.12120000       2.17180000
H        2.98350000       0.00000000       0.36850000
H        3.73340000       2.21330000       0.16450000
