22
Properties=species:S:1:pos:R:3 gdb_60480=T pbc="F F F"
C       -0.00080000       1.58200000      -0.06100000
C       -0.00870000       0.05390000      -0.01690000
O        0.66770000      -0.49840000      -1.14510000
C        0.69620000      -0.49420000       1.22390000
C        0.65730000      -2.02260000       1.31840000
C        1.39810000      -2.55930000       2.54590000
C        1.35590000      -4.09900000       2.61640000
C        2.05250000      -4.63190000       3.78520000
N        2.60690000      -5.03490000       4.71580000
H        1.02690000       1.95880000      -0.06580000
H       -0.50220000       1.94890000      -0.96410000
H       -0.52440000       2.00510000       0.80250000
H       -1.05620000      -0.29520000      -0.00410000
H        0.24180000      -0.16700000      -1.94160000
H        1.73910000      -0.15140000       1.20450000
H        0.23230000      -0.05130000       2.11400000
H       -0.38840000      -2.35990000       1.34730000
H        1.09220000      -2.44300000       0.40510000
H        2.44400000      -2.23240000       2.52680000
H        0.96140000      -2.14850000       3.46380000
H        0.31720000      -4.44910000       2.64320000
H        1.80750000      -4.53090000       1.71550000
