25
Properties=species:S:1:pos:R:3 gdb_109298=T pbc="F F F"
C       -0.20560000       1.56450000       0.00510000
C        0.05090000       0.04700000       0.03000000
C        0.78090000      -0.46930000      -1.18870000
C        2.06200000      -0.84420000      -1.13580000
C        2.84360000      -1.38050000      -2.30620000
C        1.93340000      -1.78610000      -3.47270000
C        0.85530000      -0.72540000      -3.73190000
C        0.00650000      -1.05260000      -4.96320000
C       -0.01410000      -0.55390000      -2.47520000
H        0.73880000       2.11590000      -0.04080000
H       -0.80690000       1.86140000      -0.86000000
H       -0.74240000       1.88310000       0.90440000
H        0.62570000      -0.20270000       0.92880000
H       -0.91370000      -0.47230000       0.12340000
H        2.59570000      -0.76450000      -0.18980000
H        3.56850000      -0.62290000      -2.64230000
H        3.45090000      -2.23670000      -1.98520000
H        2.52850000      -1.95480000      -4.37780000
H        1.44140000      -2.74000000      -3.23750000
H        1.36770000       0.23110000      -3.91260000
H       -0.50190000      -2.01690000      -4.84390000
H       -0.76300000      -0.29140000      -5.13270000
H        0.62330000      -1.11210000      -5.86640000
H       -0.72190000      -1.39570000      -2.40010000
H       -0.64470000       0.33810000      -2.58520000
