16
Properties=species:S:1:pos:R:3 gdb_36682=T pbc="F F F"
N       -0.26760000      -1.15160000       0.05080000
C       -0.14690000      -0.00560000       0.13170000
C        0.02250000       1.44150000       0.22660000
C        1.40700000       1.89680000      -0.26730000
N        1.46890000       3.35300000      -0.17600000
C        2.01710000       3.92960000       1.03960000
C        2.78430000       3.99980000      -0.24820000
C        3.98920000       3.21660000      -0.38560000
N        4.95320000       2.59260000      -0.52400000
H       -0.75560000       1.93790000      -0.36200000
H       -0.12250000       1.74600000       1.26940000
H        2.19620000       1.39360000       0.31020000
H        1.53640000       1.61360000      -1.31580000
H        1.52930000       4.82550000       1.41120000
H        2.40760000       3.25650000       1.80090000
H        2.79820000       4.92850000      -0.81130000
