12
Properties=species:S:1:pos:R:3 gdb_125471=T pbc="F F F"
C       -0.03450000       1.41130000      -0.01440000
C        0.00180000      -0.07040000       0.03330000
N       -0.19910000      -0.88450000      -0.94370000
C       -0.04680000      -2.13890000      -0.35240000
C        0.26400000      -2.03790000       1.06770000
O        0.47060000      -2.82290000       1.94410000
N       -0.26640000      -4.26350000      -1.52280000
N       -0.16920000      -3.26600000      -0.99710000
O        0.27950000      -0.64170000       1.24880000
H        0.93000000       1.82810000       0.29360000
H       -0.26450000       1.73380000      -1.02970000
H       -0.79250000       1.79810000       0.67450000
