20
Properties=species:S:1:pos:R:3 gdb_6876=T pbc="F F F"
C       -0.12770000       1.54450000      -0.05750000
C        0.02950000       0.04430000       0.04410000
C        1.38510000      -0.63750000      -0.17650000
C        2.56850000       0.13310000      -0.41320000
C        3.56650000       0.77450000      -0.62010000
C        0.70130000      -0.65770000       1.19770000
C        1.30860000       0.13820000       2.33610000
C        0.11930000      -1.99140000       1.62920000
H        0.77530000       2.07450000       0.25130000
H       -0.33740000       1.83690000      -1.09190000
H       -0.96010000       1.89440000       0.56300000
H       -0.80030000      -0.50830000      -0.39140000
H        1.35430000      -1.57700000      -0.72230000
H        4.44980000       1.33420000      -0.80280000
H        1.81540000       1.04110000       1.99250000
H        0.53650000       0.42970000       3.05770000
H        2.04920000      -0.46750000       2.87030000
H        0.88230000      -2.62130000       2.10130000
H       -0.68790000      -1.84650000       2.35730000
H       -0.29440000      -2.54470000       0.78030000
