19
Properties=species:S:1:pos:R:3 gdb_52108=T pbc="F F F"
O       -0.88020000       0.97950000       0.65980000
C       -0.00580000       1.02520000      -0.16620000
C        1.22490000       1.89740000      -0.08120000
C        1.34120000       2.84420000      -1.29650000
C        2.60440000       3.65580000      -1.27530000
C        2.77730000       4.95240000      -0.50130000
C        3.01940000       4.92880000      -1.97910000
O        4.33210000       4.44240000      -2.26680000
C        3.99460000       3.15800000      -1.67840000
H       -0.06130000       0.40340000      -1.09180000
H        1.19930000       2.45810000       0.85690000
H        2.10140000       1.23360000      -0.06080000
H        1.29460000       2.25560000      -2.22280000
H        0.47510000       3.51640000      -1.31200000
H        1.84490000       5.41290000      -0.18680000
H        3.61660000       5.09980000       0.17330000
H        2.53560000       5.56020000      -2.71590000
H        4.69110000       2.86660000      -0.88300000
H        3.96780000       2.37890000      -2.45070000
