16
Properties=species:S:1:pos:R:3 gdb_36013=T pbc="F F F"
N       -0.23140000      -1.11250000      -0.09920000
C       -0.12680000       0.03770000      -0.09870000
C        0.01930000       1.49020000      -0.07650000
C        1.50100000       1.95410000       0.03410000
C        2.25840000       1.55390000      -1.15450000
N        2.84880000       1.28480000      -2.11070000
C        1.56260000       3.46570000       0.25580000
C        2.73520000       4.27980000      -0.13840000
N        1.45160000       4.41830000      -0.85280000
H       -0.43790000       1.91710000      -0.97450000
H       -0.53020000       1.88590000       0.78400000
H        1.94930000       1.45510000       0.90200000
H        1.00370000       3.76350000       1.14140000
H        3.01920000       5.13460000       0.46750000
H        3.55530000       3.78240000      -0.64780000
H        1.51300000       3.93460000      -1.74750000
