18
Properties=species:S:1:pos:R:3 gdb_86701=T pbc="F F F"
C       -0.73170000       1.33800000       0.47360000
C       -0.10200000       0.02030000       0.05040000
C        0.76570000       0.02230000      -1.24700000
C        1.97060000      -0.43680000      -0.39120000
C        3.16170000       0.50580000      -0.31260000
O        3.37020000       1.38930000      -1.10310000
N        1.11420000      -0.36960000       0.80300000
C        1.28400000      -1.04280000       1.96690000
O        2.32070000      -1.58420000       2.29500000
H        0.00920000       2.14310000       0.46490000
H       -1.54190000       1.60440000      -0.21320000
H       -1.15330000       1.26960000       1.48140000
H       -0.85170000      -0.77980000       0.05740000
H        0.44820000      -0.68040000      -2.01650000
H        0.91670000       1.00780000      -1.68950000
H        2.34360000      -1.45320000      -0.57760000
H        3.82730000       0.31740000       0.55500000
H        0.37170000      -1.03220000       2.59680000
