13
Properties=species:S:1:pos:R:3 gdb_14588=T pbc="F F F"
O       -0.57320000       0.44960000       0.50330000
C       -0.05350000       1.48470000       0.19130000
C        1.35890000       1.57530000      -0.39700000
C        1.46350000       2.58850000      -1.43570000
C        1.49860000       3.43460000      -2.28900000
C        1.56400000       4.45440000      -3.33310000
C        2.03510000       5.75490000      -2.83770000
N        2.40330000       6.78120000      -2.45870000
H       -0.55820000       2.46560000       0.32350000
H        2.03380000       1.82520000       0.43570000
H        1.64670000       0.58190000      -0.75520000
H        2.23300000       4.13150000      -4.14110000
H        0.57790000       4.59880000      -3.79280000
