19
Properties=species:S:1:pos:R:3 gdb_107004=T pbc="F F F"
C       -0.34060000       1.47670000      -0.05840000
C       -0.07610000      -0.01950000      -0.11530000
C        1.17780000      -0.54390000      -0.94160000
O        2.03190000       0.39470000      -1.53170000
C        1.68730000      -1.20830000       0.34750000
O        1.86520000      -0.12280000       1.27680000
C        0.54100000      -0.69560000       1.11900000
C       -0.11980000      -1.18990000       2.36540000
O       -0.62090000      -0.12040000       3.15400000
H        0.53300000       2.01540000       0.31900000
H       -0.57460000       1.86970000      -1.05220000
H       -1.18090000       1.69310000       0.60790000
H       -0.97310000      -0.56130000      -0.43410000
H        0.89190000      -1.25590000      -1.71920000
H        2.41280000       0.90570000      -0.80640000
H        2.31310000      -2.08300000       0.48930000
H       -0.98690000      -1.80690000       2.10750000
H        0.58830000      -1.81610000       2.92830000
H        0.13180000       0.43420000       3.38750000
