17
Properties=species:S:1:pos:R:3 gdb_51180=T pbc="F F F"
O       -0.39110000       0.17150000       0.23220000
C       -0.00090000       1.30640000       0.14860000
C        1.41050000       1.69970000      -0.25860000
C        1.41180000       2.75330000      -1.33880000
C        0.96040000       2.43570000      -2.75540000
O        1.37500000       3.53580000      -3.55330000
C        2.47230000       4.19540000      -2.93110000
C        2.35690000       3.86850000      -1.46000000
O        1.03630000       4.08520000      -0.94700000
H       -0.66450000       2.16850000       0.37970000
H        1.90280000       2.11320000       0.63090000
H        1.94910000       0.80050000      -0.57160000
H        1.42640000       1.49190000      -3.08380000
H       -0.12600000       2.33940000      -2.85640000
H        3.44110000       3.83320000      -3.31310000
H        2.38730000       5.26440000      -3.15050000
H        3.18180000       4.03910000      -0.77330000
