16
Properties=species:S:1:pos:R:3 gdb_127238=T pbc="F F F"
C       -0.00760000       1.40070000       0.10070000
N        0.01200000      -0.04020000      -0.01310000
C       -0.08440000      -0.78710000      -1.11590000
C       -0.01010000      -2.12260000      -0.72260000
C       -0.04750000      -3.28180000      -1.58830000
O       -0.17830000      -3.24820000      -2.79650000
C        0.13070000      -2.04780000       0.69840000
N        0.31310000      -3.09320000       1.58620000
N        0.13740000      -0.78960000       1.12420000
H        0.92670000       1.75450000       0.54500000
H       -0.12520000       1.83270000      -0.89400000
H       -0.83950000       1.71530000       0.73650000
H       -0.19280000      -0.36120000      -2.10060000
H        0.05980000      -4.25860000      -1.06190000
H       -0.19090000      -3.93770000       1.36020000
H        0.17480000      -2.81620000       2.54850000
