21
Properties=species:S:1:pos:R:3 gdb_109514=T pbc="F F F"
C        0.36280000       1.09810000       0.37860000
O       -0.33420000       0.06760000      -0.30210000
C        0.42250000      -0.54280000      -1.28470000
C        1.38960000      -1.67940000      -0.91200000
C        1.55670000      -2.07990000       0.45050000
C        1.72040000      -2.42310000       1.59310000
C        0.07300000      -1.94360000      -1.67250000
C       -1.05750000      -2.63810000      -0.94140000
C        0.21230000      -2.32090000      -3.13480000
H        1.25120000       0.70900000       0.89050000
H        0.66930000       1.89620000      -0.31420000
H       -0.32730000       1.51420000       1.11570000
H        0.77280000       0.13380000      -2.06820000
H        2.29300000      -1.73810000      -1.51420000
H        1.86040000      -2.72860000       2.59990000
H       -1.12420000      -2.31340000       0.09650000
H       -2.01320000      -2.41730000      -1.42960000
H       -0.91310000      -3.72370000      -0.95760000
H        0.41220000      -3.39280000      -3.24370000
H       -0.70950000      -2.09420000      -3.68290000
H        1.03070000      -1.77810000      -3.61840000
