19
Properties=species:S:1:pos:R:3 gdb_37013=T pbc="F F F"
C        0.18190000       1.33160000       0.46230000
C        1.49410000       1.55920000      -0.35030000
C        1.37520000       0.10780000      -0.81730000
C       -0.07650000       0.02130000      -0.34420000
O        1.87340000      -0.40600000      -2.05280000
C        2.39460000      -0.93350000      -0.84640000
C        3.86620000      -0.93920000      -0.44890000
O        3.73500000      -2.29910000       0.02570000
C        2.37080000      -2.40330000      -0.44300000
H        0.37730000       1.13620000       1.51880000
H       -0.57950000       2.10880000       0.38440000
H        1.35600000       2.25670000      -1.18150000
H        2.39460000       1.84090000       0.20140000
H       -0.37490000      -0.87100000       0.21220000
H       -0.77430000       0.17080000      -1.17320000
H        4.56080000      -0.85460000      -1.29440000
H        4.17210000      -0.24870000       0.34700000
H        1.67710000      -2.69140000       0.35670000
H        2.26810000      -3.09930000      -1.28550000
