14
Properties=species:S:1:pos:R:3 gdb_5654=T pbc="F F F"
N       -0.01960000       1.37090000       0.01000000
C        1.28650000       1.82650000      -0.00030000
C        2.16070000       0.75810000      -0.01450000
C        1.33600000      -0.39890000      -0.01280000
C       -0.00310000      -0.00520000       0.00230000
C       -0.82780000      -1.16230000       0.00400000
C        0.04630000      -2.23060000      -0.01030000
N        1.35250000      -1.77510000      -0.02050000
H       -0.83270000       1.95890000       0.02120000
H        1.49450000       2.88470000       0.00340000
H        3.23710000       0.82550000      -0.02460000
H       -1.90420000      -1.22960000       0.01420000
H       -0.16160000      -3.28890000      -0.01410000
H        2.16560000      -2.36310000      -0.03150000
