17
Properties=species:S:1:pos:R:3 gdb_47985=T pbc="F F F"
O       -0.74920000       0.86100000      -0.48290000
C        0.17210000       0.88840000       0.30220000
C        1.29960000       1.77570000       0.20960000
C        2.25890000       2.51110000       0.15480000
C        3.40660000       3.38480000       0.09650000
C        4.12550000       3.63250000      -1.28240000
C        2.89620000       4.48270000      -1.71380000
C        3.20740000       4.90790000      -0.25010000
C        4.71020000       4.92560000      -0.64760000
H        0.20490000       0.20480000       1.17540000
H        4.08720000       3.19780000       0.93290000
H        4.65210000       2.87560000      -1.86380000
H        3.08100000       5.23720000      -2.48160000
H        1.96070000       3.94940000      -1.88700000
H        2.66970000       5.62940000       0.36530000
H        5.43890000       4.79840000       0.15760000
H        5.01390000       5.70890000      -1.34520000
