19
Properties=species:S:1:pos:R:3 gdb_116884=T pbc="F F F"
C       -0.00930000       1.44810000      -0.02410000
O       -0.03190000       0.03990000       0.02410000
C        0.61640000      -0.53880000      -1.09060000
C        0.56610000      -1.99240000      -1.00200000
C        0.51990000      -3.19480000      -0.95770000
C        0.50240000      -4.64950000      -0.85990000
C        1.23960000      -5.31700000      -2.04710000
C        1.18060000      -5.09240000       0.44120000
O        0.73790000      -5.93110000       1.17740000
H        1.01970000       1.84180000      -0.02490000
H       -0.52530000       1.83590000      -0.91700000
H       -0.52560000       1.80920000       0.86780000
H        0.13890000      -0.20750000      -2.02980000
H        1.66780000      -0.20450000      -1.14140000
H       -0.52740000      -5.02150000      -0.82150000
H        0.78840000      -5.00410000      -2.99150000
H        2.29450000      -5.02720000      -2.06230000
H        1.17400000      -6.40520000      -1.96570000
H        2.15020000      -4.58340000       0.63920000
