18
Properties=species:S:1:pos:R:3 gdb_98246=T pbc="F F F"
C        1.75590000       1.25050000       1.69480000
O        1.39100000      -0.11800000       1.90550000
C        0.63760000      -0.68510000       0.93280000
N        0.24030000       0.01900000      -0.04740000
N        0.33640000      -2.02670000       1.18970000
C       -0.76390000      -2.58940000       0.40570000
C        1.03950000      -2.95910000       2.00520000
N        2.18230000      -2.53010000       2.60970000
O        0.64570000      -4.10650000       2.09970000
H        0.86510000       1.87990000       1.64890000
H        2.37500000       1.51900000       2.55190000
H        2.31250000       1.36310000       0.76180000
H       -0.28890000      -0.51800000      -0.72430000
H       -0.47660000      -2.74320000      -0.64180000
H       -1.01630000      -3.55230000       0.84140000
H       -1.62650000      -1.91950000       0.44570000
H        2.34960000      -1.54590000       2.72950000
H        2.55420000      -3.18150000       3.28020000
