20
Properties=species:S:1:pos:R:3 gdb_22406=T pbc="F F F"
C        0.56820000       1.28840000      -0.13050000
C        0.10260000      -0.11740000       0.20820000
O       -1.20800000      -0.29160000      -0.30250000
C       -1.73620000      -1.56600000      -0.07920000
C       -2.26780000      -1.89850000       1.36310000
C       -3.55290000      -2.33470000       0.69430000
C       -3.17010000      -1.73990000      -0.64500000
N       -4.49730000      -3.05200000       1.13670000
O       -5.46870000      -3.27230000       0.13960000
H        1.58140000       1.45550000       0.24690000
H        0.57000000       1.44080000      -1.21340000
H       -0.09680000       2.03150000       0.31860000
H        0.77960000      -0.86840000      -0.23250000
H        0.11250000      -0.27470000       1.29890000
H       -1.04820000      -2.34480000      -0.44000000
H       -1.73380000      -2.64220000       1.95850000
H       -2.39210000      -0.98230000       1.95120000
H       -3.64000000      -0.76740000      -0.82550000
H       -3.30610000      -2.37080000      -1.52540000
H       -6.10270000      -3.83460000       0.59710000
