16
Properties=species:S:1:pos:R:3 gdb_43296=T pbc="F F F"
O       -0.02930000       0.00280000       0.34170000
C       -0.01500000       1.17590000       0.06850000
C       -1.22370000       2.08680000      -0.07460000
C       -0.91660000       3.31350000      -0.54150000
C        0.53490000       3.32240000      -0.94560000
N        1.82050000       3.98900000      -0.31510000
C        1.40810000       3.24510000       0.95290000
C        1.11670000       2.16980000      -0.14420000
C        2.48950000       2.63830000      -0.70810000
H       -2.21470000       1.72620000       0.17600000
H       -1.63170000       4.10710000      -0.73270000
H        0.63480000       3.29540000      -2.03620000
H        2.24010000       3.04680000       1.63220000
H        0.55830000       3.68710000       1.47460000
H        2.66400000       2.52400000      -1.77970000
H        3.38910000       2.43420000      -0.12470000
