15
Properties=species:S:1:pos:R:3 gdb_48086=T pbc="F F F"
O        0.07110000       1.66760000      -2.08190000
C        0.42960000       1.11280000      -1.07750000
C        1.12840000       1.82560000       0.09240000
O        1.43190000       1.15220000       1.05340000
C        1.37070000       3.29680000      -0.07110000
C        1.95850000       4.17820000       1.06150000
C        3.34950000       3.51760000       0.90340000
C        2.78220000       3.85940000      -0.49150000
O        2.35250000       5.16900000       0.02540000
H        0.29400000       0.02630000      -0.89110000
H        0.57570000       3.77100000      -0.64750000
H        1.45740000       4.55090000       1.95400000
H        4.18440000       4.14770000       1.20970000
H        3.45840000       2.47360000       1.19380000
H        3.24440000       3.82650000      -1.47770000
