22
Properties=species:S:1:pos:R:3 gdb_6987=T pbc="F F F"
C       -0.62620000       1.29480000      -0.00660000
C        0.11690000      -0.03860000      -0.05830000
C        1.27770000      -0.07160000      -1.07150000
O        2.25910000      -0.97430000      -0.56120000
C        1.77100000      -1.55570000       0.64090000
C        0.79730000      -0.53230000       1.25240000
C        1.59030000       0.58010000       1.96020000
C       -0.19350000      -1.17980000       2.22330000
H        0.04730000       2.12660000       0.22170000
H       -1.10090000       1.51120000      -0.96970000
H       -1.41700000       1.28250000       0.75070000
H       -0.60380000      -0.81640000      -0.34440000
H        0.94630000      -0.40170000      -2.06510000
H        1.73970000       0.91900000      -1.18860000
H        1.24890000      -2.50450000       0.43120000
H        2.62990000      -1.77610000       1.28380000
H        2.33830000       1.02420000       1.29670000
H        0.93490000       1.37910000       2.31990000
H        2.11910000       0.17310000       2.82880000
H        0.32390000      -1.60600000       3.09030000
H       -0.91350000      -0.44700000       2.60380000
H       -0.75790000      -1.98520000       1.74060000
