18
Properties=species:S:1:pos:R:3 gdb_6913=T pbc="F F F"
C        0.07190000       1.49780000      -0.15480000
C       -0.06640000       0.01490000       0.11750000
C       -1.20640000      -0.65870000      -0.61880000
O        1.16390000      -0.73590000       0.11690000
C        0.44910000      -0.61720000       1.34680000
C        1.12970000       0.12430000       2.48840000
C        2.02780000      -0.73900000       3.24880000
C        2.75330000      -1.46940000       3.86820000
H        0.93680000       1.93140000       0.34880000
H        0.19250000       1.66780000      -1.23020000
H       -0.82660000       2.03570000       0.16680000
H       -1.09150000      -0.52770000      -1.70040000
H       -1.22820000      -1.73000000      -0.40560000
H       -2.16950000      -0.22400000      -0.32970000
H       -0.03450000      -1.54210000       1.66800000
H        1.68680000       0.98030000       2.09620000
H        0.35660000       0.52660000       3.15740000
H        3.40390000      -2.10720000       4.41320000
