17
Properties=species:S:1:pos:R:3 gdb_9634=T pbc="F F F"
C        0.08710000       1.51440000      -0.19550000
C       -0.01230000       0.02850000       0.10260000
N        1.27430000      -0.71790000       0.12910000
C        0.49480000      -0.59690000       1.37170000
C        1.18170000       0.15290000       2.49110000
O        2.26520000      -0.60470000       3.00280000
C       -1.13850000      -0.63020000      -0.51610000
C       -2.07220000      -1.16620000      -1.05300000
H        1.00980000       1.93230000       0.20850000
H        0.08780000       1.67480000      -1.27760000
H       -0.76650000       2.05300000       0.22700000
H        1.14500000      -1.63780000      -0.28390000
H       -0.04230000      -1.48440000       1.69930000
H        1.51440000       1.14190000       2.14980000
H        0.48780000       0.30280000       3.32460000
H        2.84580000      -0.77890000       2.25240000
H       -2.89890000      -1.64280000      -1.51900000
