18
Properties=species:S:1:pos:R:3 gdb_47581=T pbc="F F F"
N       -0.05220000       1.21190000       0.39120000
C        0.03010000       0.01290000      -0.00200000
O        1.22580000      -0.56410000      -0.31570000
C        1.23130000      -1.75110000      -1.12220000
C        0.29830000      -2.81050000      -0.55590000
C       -1.14140000      -2.29040000      -0.57810000
C       -1.96010000      -2.60340000       0.68750000
O       -1.65530000      -1.30220000       1.23700000
C       -1.22490000      -0.83260000      -0.06800000
H        0.87810000       1.63590000       0.42890000
H        0.95460000      -1.49150000      -2.15430000
H        2.27140000      -2.08430000      -1.12620000
H        0.39310000      -3.74030000      -1.12610000
H        0.60910000      -3.02110000       0.47350000
H       -1.62210000      -2.48210000      -1.54000000
H       -3.03740000      -2.72510000       0.51000000
H       -1.60350000      -3.41750000       1.32800000
H       -2.01430000      -0.23410000      -0.53750000
