13
Properties=species:S:1:pos:R:3 gdb_15328=T pbc="F F F"
C        0.07710000       1.49870000       0.03210000
C        0.04290000       0.04590000       0.05400000
C        0.00070000      -1.15710000       0.07800000
C       -0.02810000      -2.58890000       0.09020000
O       -0.62990000      -3.24820000       1.21660000
C       -1.29460000      -3.36320000      -0.03460000
C       -2.56760000      -2.68960000      -0.17100000
N       -3.59510000      -2.17970000      -0.30970000
H        0.87960000       1.86350000      -0.61750000
H       -0.86940000       1.90780000      -0.33630000
H        0.24940000       1.90050000       1.03620000
H        0.86680000      -3.09090000      -0.27650000
H       -1.25830000      -4.34950000      -0.49440000
