21
Properties=species:S:1:pos:R:3 gdb_106462=T pbc="F F F"
C        0.90360000      -0.44850000      -0.87850000
O       -0.07110000       0.01450000       0.03090000
C       -1.32880000      -0.55990000      -0.08450000
C       -2.20780000      -0.56810000      -1.39110000
C       -3.01870000      -1.58930000      -0.52290000
C       -1.63540000      -2.10200000       0.00400000
C       -3.45350000      -0.69070000       0.64350000
C       -2.34310000      -0.00820000       0.93820000
C       -2.02530000       1.03240000       1.95190000
H        1.82530000       0.09510000      -0.65880000
H        1.09300000      -1.52510000      -0.76510000
H        0.61830000      -0.25250000      -1.92160000
H       -2.70370000       0.36440000      -1.66920000
H       -1.71750000      -1.02940000      -2.25470000
H       -3.74360000      -2.26630000      -0.96980000
H       -1.09140000      -2.70690000      -0.72900000
H       -1.61100000      -2.56330000       0.99360000
H       -4.43400000      -0.64470000       1.09640000
H       -2.89920000       1.26570000       2.56670000
H       -1.21240000       0.70750000       2.61230000
H       -1.67850000       1.95720000       1.47550000
