18
Properties=species:S:1:pos:R:3 gdb_69420=T pbc="F F F"
C        0.11440000       1.49720000      -0.02910000
C        0.04080000       0.01020000       0.07200000
C       -0.96150000      -0.81120000       0.81600000
C        0.52220000      -1.01630000       1.08160000
C        1.17510000      -1.69240000      -0.11750000
C        0.84640000      -3.15620000      -0.42810000
C        1.40320000      -3.59740000      -1.70530000
N        1.85680000      -3.94460000      -2.70940000
O        0.56030000      -0.75470000      -1.03460000
H        1.13840000       1.82750000      -0.22720000
H       -0.52220000       1.85410000      -0.84640000
H       -0.23320000       1.96210000       0.89770000
H       -1.48000000      -0.29990000       1.62130000
H       -1.55690000      -1.55320000       0.29170000
H        0.97110000      -0.89360000       2.05810000
H        2.26280000      -1.55190000      -0.12290000
H        1.25550000      -3.78740000       0.36980000
H       -0.23720000      -3.30490000      -0.44190000
