20
Properties=species:S:1:pos:R:3 gdb_87368=T pbc="F F F"
C       -0.59710000       1.31130000      -0.07680000
C       -0.34100000      -0.15580000       0.18860000
C        0.96320000      -0.79090000      -0.21450000
C        0.61760000      -0.67780000       1.24920000
N        1.39270000      -0.03470000       2.32930000
C        1.12350000       1.33500000       2.72270000
C        0.99100000      -1.08410000       3.30480000
C        0.31320000      -1.83610000       2.14830000
O       -0.23460000      -2.89240000       2.01180000
H        0.32040000       1.90250000      -0.01760000
H       -1.00330000       1.43800000      -1.08630000
H       -1.31860000       1.73460000       0.62900000
H       -1.22020000      -0.78850000       0.08290000
H        0.97030000      -1.78560000      -0.64850000
H        1.74380000      -0.12450000      -0.56960000
H        0.06040000       1.53500000       2.94860000
H        1.70770000       1.56280000       3.61990000
H        1.44390000       2.02770000       1.94000000
H        1.82310000      -1.58720000       3.80750000
H        0.26200000      -0.74910000       4.05840000
