18
Properties=species:S:1:pos:R:3 gdb_104488=T pbc="F F F"
O        0.26630000       1.13020000       0.13090000
C        0.09400000      -0.21950000      -0.25690000
C       -1.36940000      -0.63560000      -0.02770000
C       -2.16150000      -0.01890000      -1.16920000
O       -2.89770000      -0.63480000      -1.89910000
C       -1.81610000      -2.00790000       0.54340000
C       -1.14930000      -1.55030000       1.85930000
N       -1.87530000      -0.26420000       1.41080000
C       -3.03800000      -1.23400000       1.09600000
H       -0.22760000       1.24440000       0.95430000
H        0.33630000      -0.27740000      -1.32500000
H        0.79570000      -0.88880000       0.25750000
H       -1.95340000       1.06080000      -1.32540000
H       -1.78770000      -2.98470000       0.05410000
H       -1.55670000      -1.95090000       2.79030000
H       -0.06550000      -1.46750000       1.92380000
H       -3.77740000      -0.84780000       0.39770000
H       -3.51020000      -1.62150000       2.00120000
