19
Properties=species:S:1:pos:R:3 gdb_113674=T pbc="F F F"
C        0.67740000       1.72130000      -0.02890000
C       -0.18540000       0.45830000      -0.14670000
C        0.25270000      -0.40030000      -1.30710000
O        1.44340000      -1.16660000      -1.15080000
C        0.22770000      -1.88380000      -1.32710000
C       -0.25950000      -2.68270000      -0.15260000
O        0.01200000      -2.49260000       1.00510000
O       -1.07460000      -3.66380000      -0.58870000
C       -1.63960000      -4.49050000       0.43750000
H        1.72570000       1.45650000       0.13800000
H        0.62440000       2.33090000      -0.93790000
H        0.34640000       2.34110000       0.80910000
H       -0.12950000      -0.12740000       0.77300000
H       -1.23620000       0.73540000      -0.30280000
H        0.16980000       0.07390000      -2.28900000
H        0.11250000      -2.38790000      -2.28480000
H       -2.26780000      -5.21620000      -0.07850000
H       -0.85070000      -4.99620000       0.99970000
H       -2.23510000      -3.89080000       1.13050000
