18
Properties=species:S:1:pos:R:3 gdb_16461=T pbc="F F F"
C        0.00470000       1.51460000      -0.01090000
C        0.04680000       0.00710000      -0.04290000
C        0.46460000      -0.71750000      -1.32200000
C        0.35560000      -2.20620000      -0.87470000
C       -0.10160000      -2.01830000       0.56600000
C        0.60870000      -0.78390000       1.18920000
O       -0.58210000      -0.45930000       1.98780000
C       -1.08790000      -0.82000000       0.65550000
H        0.99000000       1.94230000      -0.22840000
H       -0.69470000       1.90640000      -0.75820000
H       -0.31330000       1.85810000       0.97700000
H       -0.20080000      -0.47860000      -2.15850000
H        1.47910000      -0.44290000      -1.63000000
H       -0.36990000      -2.77180000      -1.46740000
H        1.31110000      -2.73600000      -0.93860000
H       -0.28500000      -2.87960000       1.20710000
H        1.58330000      -0.71100000       1.67580000
H       -2.16760000      -0.79080000       0.49580000
