14
Properties=species:S:1:pos:R:3 gdb_9138=T pbc="F F F"
O        0.29940000       0.85450000       0.81180000
C       -0.16210000       0.30430000      -0.41450000
C       -1.44210000      -0.35960000      -0.20430000
C       -2.50090000      -0.91220000      -0.05840000
C       -3.77260000      -1.62060000       0.14050000
O       -3.58460000      -2.98440000       0.50710000
C       -4.62640000      -0.90450000       1.10090000
C       -5.32480000      -0.34580000       1.90250000
H        1.14100000       1.28670000       0.63370000
H       -0.29070000       1.08450000      -1.18250000
H        0.55520000      -0.42710000      -0.82150000
H       -4.29880000      -1.67040000      -0.82180000
H       -3.11040000      -2.99010000       1.34700000
H       -5.94230000       0.15410000       2.60730000
