18
Properties=species:S:1:pos:R:3 gdb_37382=T pbc="F F F"
C       -0.00560000       1.47060000      -0.17830000
C        1.28070000       0.73880000      -0.00370000
C        2.03850000       0.68350000       1.31710000
C        1.23980000       1.28020000       2.48740000
C        0.17720000       0.20330000       2.65900000
C        0.85290000      -1.05100000       2.14530000
O        2.13340000      -0.71720000       1.65660000
C       -0.29990000      -0.47220000       1.36640000
N       -0.00530000       0.02010000       0.03870000
H       -0.37130000       2.11170000       0.61680000
H       -0.30480000       1.77450000      -1.17750000
H        1.88530000       0.52470000      -0.88250000
H        3.05580000       1.06550000       1.22120000
H        1.86800000       1.33060000       3.38340000
H        0.86420000       2.28330000       2.28060000
H       -0.46400000       0.19870000       3.53250000
H        0.82610000      -2.02570000       2.61500000
H       -1.25020000      -0.99310000       1.42630000
