19
Properties=species:S:1:pos:R:3 gdb_61818=T pbc="F F F"
C        0.06500000       1.56080000      -0.07400000
C        0.00250000       0.05140000      -0.08160000
C        1.14050000      -0.72560000      -0.59070000
O        0.90260000      -0.61250000       0.82630000
C       -1.38290000      -0.60980000      -0.10180000
O       -1.25810000      -2.01160000       0.05130000
C       -2.32240000      -0.03180000       0.98020000
C       -3.67800000      -0.70890000       0.97730000
O       -4.72580000      -0.11420000       0.94610000
H        1.10080000       1.90030000      -0.14430000
H       -0.49200000       1.97320000      -0.92250000
H       -0.36380000       1.97240000       0.84370000
H        0.97470000      -1.71600000      -1.00510000
H        2.02470000      -0.20070000      -0.94700000
H       -1.83070000      -0.44400000      -1.08990000
H       -0.58670000      -2.13370000       0.73940000
H       -1.85690000      -0.20390000       1.96190000
H       -2.48200000       1.04210000       0.85740000
H       -3.64090000      -1.81740000       1.00500000
