16
Properties=species:S:1:pos:R:3 gdb_17099=T pbc="F F F"
O        0.00030000      -0.03190000      -0.04490000
C        0.03900000       1.16750000       0.06910000
C        1.30190000       1.99000000       0.05430000
C        1.28830000       3.11770000      -1.03900000
C        1.40970000       4.32610000      -0.08800000
C        2.52930000       3.91940000       0.89330000
C        1.40110000       2.94310000       1.28510000
O        0.43540000       3.98420000       0.95040000
H       -0.88790000       1.76880000       0.20000000
H        2.15800000       1.31660000      -0.02580000
H        2.11460000       3.02630000      -1.74740000
H        0.34990000       3.14970000      -1.59870000
H        1.29560000       5.33040000      -0.49420000
H        3.47140000       3.52620000       0.50330000
H        2.69120000       4.67410000       1.66300000
H        1.28120000       2.52120000       2.28250000
