13
Properties=species:S:1:pos:R:3 gdb_128630=T pbc="F F F"
C        0.02170000       1.38590000       0.00730000
O       -0.03640000      -0.05350000       0.00350000
C       -1.23790000      -0.60580000       0.01070000
N       -2.31950000       0.09630000       0.02090000
C       -3.52710000      -0.57250000       0.02800000
O       -4.60730000      -0.06900000       0.03740000
O       -3.50180000      -1.99510000       0.02360000
N       -2.34140000      -2.71860000       0.01280000
C       -1.24210000      -2.05490000       0.00650000
H        1.08330000       1.62830000       0.00030000
H       -0.47820000       1.78640000      -0.87700000
H       -0.46520000       1.78110000       0.90110000
H       -0.32160000      -2.62610000      -0.00200000
