14
Properties=species:S:1:pos:R:3 gdb_20460=T pbc="F F F"
C       -0.03490000       1.50110000       0.17180000
N        1.30520000       1.95560000      -0.29420000
C        2.20710000       0.78310000      -0.53760000
C        1.29360000      -0.39720000      -0.38630000
C        0.06810000       0.02090000      -0.00010000
O       -0.76970000      -0.99130000       0.20480000
N       -0.06250000      -2.18190000      -0.06980000
C        1.15430000      -1.80700000      -0.40720000
H       -0.20610000       1.77510000       1.22230000
H       -0.84060000       1.95760000      -0.41450000
H        1.19310000       2.46520000      -1.15980000
H        2.67340000       0.86100000      -1.52630000
H        3.02220000       0.77100000       0.19860000
H        1.86990000      -2.57770000      -0.65810000
