20
Properties=species:S:1:pos:R:3 gdb_63543=T pbc="F F F"
C       -0.10880000       1.56560000      -0.07640000
C        0.00460000       0.06680000       0.02550000
O       -1.15800000      -0.55510000      -0.45450000
C        1.34460000      -0.61640000      -0.19370000
C        0.70700000      -0.60010000       1.16930000
C        1.27240000      -0.12240000       2.51110000
C        0.61500000      -1.37360000       3.09510000
C       -0.81880000      -1.43280000       2.76140000
N        0.15720000      -1.87010000       1.72940000
H        0.79130000       2.05460000       0.30570000
H       -0.24380000       1.86500000      -1.12090000
H       -0.97130000       1.92700000       0.49300000
H       -1.16990000      -1.45670000      -0.11000000
H        1.34290000      -1.56800000      -0.71660000
H        2.22410000      -0.00120000      -0.36010000
H        2.36400000      -0.15580000       2.53930000
H        0.93190000       0.83810000       2.90980000
H        1.07560000      -2.04940000       3.80750000
H       -1.39620000      -2.25850000       3.16530000
H       -1.37960000      -0.51700000       2.59190000
