21
Properties=species:S:1:pos:R:3 gdb_92860=T pbc="F F F"
O        0.16120000       1.43020000       0.04900000
C        0.06680000       0.01400000       0.00850000
C        0.57620000      -0.62120000       1.33610000
C       -0.68580000      -0.68270000       2.18160000
C       -1.76730000      -0.62360000       1.40410000
C       -3.25580000      -0.48180000       1.58960000
C       -3.77310000      -0.13200000       0.15990000
C       -2.53660000       0.36730000      -0.63010000
C       -1.39700000      -0.49010000      -0.06050000
H       -0.27480000       1.71890000       0.85970000
H        0.66220000      -0.28580000      -0.85780000
H        0.99530000      -1.62240000       1.15960000
H        1.37720000      -0.01400000       1.77200000
H       -0.67210000      -0.75660000       3.26360000
H       -3.72740000      -1.39080000       1.97890000
H       -3.48480000       0.31440000       2.30730000
H       -4.16750000      -1.03690000      -0.31580000
H       -4.58730000       0.59760000       0.17570000
H       -2.66600000       0.27270000      -1.71170000
H       -2.33780000       1.42290000      -0.41670000
H       -1.40670000      -1.48050000      -0.54280000
