23
Properties=species:S:1:pos:R:3 gdb_64767=T pbc="F F F"
C       -0.31500000       1.72430000       0.21220000
C        0.10400000       0.26130000       0.04360000
C       -1.16290000      -0.63340000      -0.11370000
C       -1.96380000      -0.34340000      -1.29720000
C       -2.61550000      -0.09800000      -2.27790000
C        1.08150000       0.04840000      -1.13440000
C        1.80850000      -1.28210000      -0.83890000
C        1.74280000      -1.46590000       0.70640000
C        0.93740000      -0.25750000       1.23950000
H        0.56420000       2.36840000       0.31850000
H       -0.89140000       2.07350000      -0.64970000
H       -0.93760000       1.85820000       1.10460000
H       -0.87150000      -1.69050000      -0.13460000
H       -1.78670000      -0.51140000       0.78160000
H       -3.19850000       0.11310000      -3.13970000
H        0.57370000       0.05490000      -2.10280000
H        1.80090000       0.87590000      -1.14220000
H        1.31130000      -2.11480000      -1.34600000
H        2.83690000      -1.26870000      -1.20970000
H        1.25060000      -2.40930000       0.96240000
H        2.73750000      -1.50920000       1.15810000
H        1.62060000       0.53840000       1.55790000
H        0.31760000      -0.50690000       2.10770000
