20
Properties=species:S:1:pos:R:3 gdb_93168=T pbc="F F F"
C       -0.11250000       1.60840000      -0.06940000
C       -0.07670000       0.08170000      -0.02710000
O        0.47910000      -0.36040000      -1.27560000
C        0.29510000      -1.69660000      -1.54390000
N        1.15190000      -2.61120000      -1.46900000
C        2.49610000      -2.41920000      -0.95300000
C        2.82880000      -1.16080000      -0.11050000
C        1.94190000      -0.97790000       1.10080000
C        0.71400000      -0.45700000       1.13890000
H        0.89990000       2.00640000      -0.18030000
H       -0.72150000       1.95170000      -0.91000000
H       -0.53870000       2.00350000       0.85710000
H       -1.11200000      -0.29180000       0.05000000
H       -0.71450000      -1.93320000      -1.89310000
H        2.71650000      -3.31350000      -0.35650000
H        3.18420000      -2.46120000      -1.80790000
H        3.86480000      -1.28060000       0.22840000
H        2.80060000      -0.27880000      -0.75040000
H        2.35350000      -1.33630000       2.04250000
H        0.19970000      -0.39350000       2.09620000
