17
Properties=species:S:1:pos:R:3 gdb_12578=T pbc="F F F"
C        0.01180000       1.55820000       0.02700000
C       -0.01720000       0.06140000       0.01700000
C       -1.10450000      -0.75270000       0.03240000
N       -2.41160000      -0.37440000       0.10370000
C       -0.74970000      -2.22210000       0.01840000
C        0.78840000      -2.23120000      -0.01500000
C        1.19810000      -0.74660000      -0.01630000
O        2.34470000      -0.34290000      -0.04620000
H        1.04870000       1.88970000      -0.07400000
H       -0.56540000       1.99390000      -0.79950000
H       -0.38680000       1.97730000       0.95960000
H       -2.64470000       0.58890000      -0.07770000
H       -3.12220000      -1.04170000      -0.14830000
H       -1.15980000      -2.72340000       0.90340000
H       -1.19530000      -2.71810000      -0.85350000
H        1.22940000      -2.73130000       0.85190000
H        1.19280000      -2.72260000      -0.90440000
