21
Properties=species:S:1:pos:R:3 gdb_98464=T pbc="F F F"
C        0.59930000       0.06810000       1.21530000
C       -0.09220000      -0.03850000      -0.15110000
C       -1.46960000      -0.68620000      -0.09990000
C       -1.86930000      -1.64300000      -1.23270000
C       -1.55100000      -2.18790000       0.11780000
C       -2.63250000       0.09800000       0.41510000
O       -3.68770000      -0.42770000       0.72540000
C       -2.55080000       1.62190000       0.49030000
O       -3.75490000       2.16330000       0.94080000
H        1.58630000       0.52960000       1.11620000
H        0.02110000       0.67150000       1.92190000
H        0.73330000      -0.92130000       1.66380000
H       -0.15740000       0.95220000      -0.61670000
H        0.53920000      -0.63510000      -0.81950000
H       -2.90890000      -1.62860000      -1.53840000
H       -1.15090000      -1.76640000      -2.03570000
H       -0.60810000      -2.70540000       0.25660000
H       -2.37610000      -2.54240000       0.72340000
H       -1.71770000       1.91140000       1.14890000
H       -2.29210000       1.99700000      -0.51500000
H       -4.33600000       1.39470000       1.06870000
