14
Properties=species:S:1:pos:R:3 gdb_129990=T pbc="F F F"
N        0.00440000       1.31090000       0.21480000
C       -0.03320000      -0.05210000       0.03270000
N       -1.12650000      -0.79770000       0.04530000
C       -0.61840000      -2.04740000      -0.09670000
O       -1.47000000      -3.09300000      -0.14220000
C       -0.95850000      -4.34780000       0.03900000
N       -1.70840000      -5.33400000      -0.17960000
N        0.68970000      -2.15220000      -0.21200000
N        1.06060000      -0.82800000      -0.11520000
H        0.70050000       1.80690000      -0.32320000
H       -0.91300000       1.72540000       0.12780000
H        0.07910000      -4.34270000       0.37890000
H       -1.20790000      -6.19670000       0.02670000
H        2.03530000      -0.58240000      -0.10730000
