15
Properties=species:S:1:pos:R:3 gdb_45974=T pbc="F F F"
O       -0.03600000       0.31830000      -1.00440000
C        0.03800000       1.29780000      -0.29980000
C       -1.22500000       1.87610000       0.33970000
O       -1.25340000       3.28950000       0.57250000
C       -0.15850000       4.09140000       0.50850000
O       -0.30380000       5.28220000       0.53100000
C        1.18590000       3.44570000       0.44950000
C        1.54500000       2.39510000       1.46190000
C        1.30700000       1.98480000       0.02260000
H       -2.06750000       1.64320000      -0.31480000
H       -1.39580000       1.36190000       1.29550000
H        1.96250000       4.13140000       0.13660000
H        2.57060000       2.37240000       1.80910000
H        0.80920000       2.12040000       2.20880000
H        2.16080000       1.68540000      -0.57290000
