15
Properties=species:S:1:pos:R:3 gdb_33600=T pbc="F F F"
N       -0.05450000      -1.05540000      -0.05160000
C       -0.03200000       0.10010000       0.00740000
C        0.03890000       1.52000000       0.09450000
C       -0.93240000       2.40220000       0.82540000
C       -0.06120000       3.64990000       1.07060000
C        1.36760000       3.14930000       1.40380000
C        1.28320000       2.43700000       0.03180000
C        0.23810000       3.49020000      -0.45700000
N       -0.87940000       2.45420000      -0.66580000
H       -1.79790000       2.02730000       1.35720000
H       -0.51520000       4.52490000       1.52900000
H        2.09380000       3.96750000       1.38370000
H        1.51390000       2.54000000       2.29960000
H        2.14660000       2.10120000      -0.53600000
H        0.39920000       4.27890000      -1.18640000
