14
Properties=species:S:1:pos:R:3 gdb_17902=T pbc="F F F"
O        0.00040000       0.09160000       0.00440000
C       -0.01530000       1.27580000       0.01080000
C       -1.18520000       2.34430000       0.03280000
C       -0.69230000       3.06710000       1.27640000
C        0.64840000       3.08500000       1.25770000
C        1.12560000       2.37520000       0.00060000
C        0.61350000       3.09810000      -1.23520000
C       -0.72730000       3.08000000      -1.21660000
H       -2.20740000       1.97310000       0.04520000
H       -1.34840000       3.45770000       2.04190000
H        1.31490000       3.49320000       2.00480000
H        2.15740000       2.03160000      -0.01570000
H        1.25880000       3.51420000      -1.99640000
H       -1.40450000       3.47840000      -1.95930000
