22
Properties=species:S:1:pos:R:3 gdb_89111=T pbc="F F F"
C        0.03000000       1.51650000      -0.43030000
C        0.01410000       0.04590000      -0.07240000
C        1.27110000      -0.75250000       0.00060000
N        0.49500000      -0.47890000       1.20820000
C        1.07140000       0.42080000       2.19850000
C        1.81170000      -0.38900000       3.26580000
C        2.41100000       0.49930000       4.36910000
C        3.03480000      -0.32470000       5.47150000
O        4.17670000      -0.23680000       5.84210000
H        0.97230000       2.00340000      -0.16830000
H       -0.11350000       1.63540000      -1.50940000
H       -0.78260000       2.05500000       0.07020000
H       -0.88310000      -0.47090000      -0.41210000
H        1.30340000      -1.78820000      -0.32790000
H        2.20520000      -0.20610000      -0.13480000
H        1.76200000       1.16430000       1.76580000
H        0.25240000       0.98100000       2.66800000
H        1.11440000      -1.11510000       3.69950000
H        2.60990000      -0.96990000       2.78780000
H        3.16740000       1.18490000       3.97560000
H        1.60830000       1.10060000       4.82200000
H        2.33760000      -1.06120000       5.93790000
