17
Properties=species:S:1:pos:R:3 gdb_56056=T pbc="F F F"
C       -0.26640000       1.56130000       0.31160000
C        0.08850000       0.24310000      -0.35140000
O        0.74970000       0.15320000      -1.36280000
N       -0.41440000      -0.86980000       0.30590000
C       -0.21390000      -2.17230000      -0.12150000
N       -0.70890000      -3.13470000       0.53820000
C       -0.49140000      -4.50310000       0.07870000
C        0.29930000      -4.69570000      -1.13870000
C        0.95160000      -4.82400000      -2.14060000
H        0.16750000       2.37370000      -0.26960000
H       -1.35270000       1.69050000       0.36290000
H        0.12150000       1.59850000       1.33510000
H       -0.96180000      -0.75700000       1.14700000
H        0.38200000      -2.24390000      -1.03200000
H       -0.02390000      -5.05740000       0.90380000
H       -1.47820000      -4.96660000      -0.05510000
H        1.52560000      -4.95140000      -3.02520000
