15
Properties=species:S:1:pos:R:3 gdb_10023=T pbc="F F F"
C       -0.00590000       1.47980000      -0.00330000
C        0.01940000       0.02520000      -0.02770000
C        0.05550000      -1.17680000      -0.05320000
C        0.04030000      -2.63680000      -0.06350000
C       -1.39740000      -3.20320000       0.16850000
O       -1.40790000      -4.60570000       0.22430000
C        0.56330000      -3.18650000      -1.32500000
N        0.92120000      -3.66660000      -2.31340000
H        0.62650000       1.87330000       0.79960000
H        0.35840000       1.89330000      -0.94960000
H       -1.02220000       1.85520000       0.15620000
H        0.67060000      -3.03050000       0.74480000
H       -1.74360000      -2.83890000       1.13870000
H       -2.06190000      -2.80150000      -0.60780000
H       -1.21590000      -4.94730000      -0.65680000
