17
Properties=species:S:1:pos:R:3 gdb_125907=T pbc="F F F"
C       -0.50650000       1.45190000       0.01380000
C        0.15510000       0.08880000       0.02580000
C        1.01370000      -0.24720000      -1.25050000
C        2.28340000      -0.74390000      -0.61920000
C        2.18130000      -0.52470000       0.72570000
N        3.31830000      -0.90980000       1.32540000
N        4.20850000      -1.39450000       0.39770000
C        3.57630000      -1.28520000      -0.77250000
O        1.05150000       0.02040000       1.20360000
H        0.24030000       2.23990000      -0.12280000
H       -1.22480000       1.50980000      -0.81030000
H       -1.04060000       1.63610000       0.94990000
H       -0.59050000      -0.69740000       0.18720000
H        0.49360000      -0.98150000      -1.87370000
H        1.16040000       0.65130000      -1.86410000
H        3.57160000      -0.89530000       2.29740000
H        4.08610000      -1.60780000      -1.66890000
