21
Properties=species:S:1:pos:R:3 gdb_91492=T pbc="F F F"
C       -0.01630000       1.49440000       0.13840000
C        0.09530000      -0.01660000      -0.06130000
C        1.09810000      -0.46230000      -1.16790000
C        2.05580000      -1.22420000      -0.25280000
O        2.20540000      -0.27240000       0.89920000
C        0.79100000      -0.71360000       1.14350000
C       -0.16370000      -1.29340000       2.21950000
C       -0.26100000      -2.54310000       1.20970000
C        1.16740000      -2.08310000       0.72630000
H        0.96810000       1.92150000       0.34720000
H       -0.41960000       1.97930000      -0.75660000
H       -0.68150000       1.73720000       0.97500000
H       -0.90280000      -0.42710000      -0.24020000
H        0.65300000      -1.09530000      -1.94100000
H        1.59520000       0.38250000      -1.65130000
H        3.01760000      -1.57230000      -0.63180000
H        0.33760000      -1.59040000       3.14250000
H       -1.07890000      -0.74240000       2.45310000
H       -0.31360000      -3.53240000       1.66730000
H       -1.07560000      -2.43270000       0.49410000
H        1.87050000      -2.47170000       1.46770000
