16
Properties=species:S:1:pos:R:3 gdb_111940=T pbc="F F F"
C       -0.15120000       1.57270000      -0.02280000
C        0.06310000       0.05790000       0.00950000
N        0.71230000      -0.45650000      -1.18700000
C        0.11320000      -0.66580000      -2.42430000
C        0.95730000      -1.12070000      -3.37840000
C        2.27640000      -1.24310000      -2.76390000
O        3.33800000      -1.60700000      -3.20600000
C        2.06460000      -0.77680000      -1.27230000
O        2.87170000      -0.70580000      -0.38330000
H        0.80480000       2.09570000      -0.11320000
H       -0.78600000       1.86930000      -0.86400000
H       -0.63820000       1.90250000       0.89980000
H        0.71340000      -0.21740000       0.84380000
H       -0.89020000      -0.46610000       0.14270000
H       -0.94630000      -0.46110000      -2.52010000
H        0.70780000      -1.35760000      -4.39990000
