18
Properties=species:S:1:pos:R:3 gdb_85064=T pbc="F F F"
C       -0.34600000       1.51270000      -0.00180000
C        0.00010000       0.04030000       0.08000000
O        0.70770000      -0.34410000      -1.13550000
C        1.68610000      -1.22280000      -0.86200000
O        2.47180000      -1.63080000      -1.67180000
C        1.64240000      -1.59860000       0.62310000
N        2.99080000      -1.80120000       1.12510000
C        0.93970000      -0.36760000       1.23220000
O        1.88880000       0.63330000       1.48850000
H        0.56630000       2.11020000      -0.01830000
H       -0.93270000       1.71510000      -0.90130000
H       -0.93710000       1.80360000       0.87200000
H       -0.91060000      -0.57110000       0.12650000
H        0.99240000      -2.48220000       0.71310000
H        3.02730000      -2.52530000       1.83220000
H        3.58710000      -2.08030000       0.34980000
H        0.35740000      -0.60720000       2.13410000
H        2.72760000       0.15140000       1.60790000
