20
Properties=species:S:1:pos:R:3 gdb_46032=T pbc="F F F"
N       -0.52330000       0.84060000       0.81080000
C       -0.21950000      -0.21920000       0.19590000
C       -1.04800000      -0.90180000      -0.87130000
C       -0.47600000      -2.33240000      -0.90600000
C        0.98250000      -2.06280000      -0.48850000
O        0.92880000      -0.93580000       0.40250000
C       -1.18370000      -3.26490000       0.05700000
C       -2.41020000      -4.02270000      -0.37950000
C       -1.11380000      -4.75840000      -0.13560000
H        0.21700000       1.09580000       1.46720000
H       -2.11220000      -0.85130000      -0.63990000
H       -0.88790000      -0.38690000      -1.82550000
H       -0.51390000      -2.76100000      -1.91230000
H        1.44010000      -2.89560000       0.05070000
H        1.61400000      -1.80640000      -1.34860000
H       -1.18210000      -2.91870000       1.08820000
H       -3.21960000      -4.15200000       0.33010000
H       -2.73790000      -3.90730000      -1.40790000
H       -0.57840000      -5.13510000      -1.00170000
H       -1.03560000      -5.39120000       0.74120000
