15
Properties=species:S:1:pos:R:3 gdb_113534=T pbc="F F F"
O        0.04690000       1.37160000      -0.45240000
C        0.04840000       0.14230000       0.24540000
C       -1.33100000      -0.46560000       0.29580000
O       -1.76320000      -1.12180000      -0.91640000
C       -1.54770000      -1.91350000       0.22150000
C       -0.62980000      -3.12720000       0.35160000
O       -1.69890000      -3.82120000       1.07150000
C       -2.59060000      -2.77850000       0.91770000
O       -3.72190000      -2.71640000       1.26490000
H       -0.25030000       1.19290000      -1.35170000
H        0.75100000      -0.58070000      -0.19650000
H        0.38850000       0.36550000       1.26240000
H       -2.10650000       0.14210000       0.76130000
H       -0.39370000      -3.63130000      -0.58770000
H        0.25780000      -3.02130000       0.97800000
