18
Properties=species:S:1:pos:R:3 gdb_92762=T pbc="F F F"
N        0.00410000       0.72980000       0.18710000
H        0.89670000       0.61720000       4.58010000
H       -0.40170000       0.82840000      -0.73960000
H       -0.20320000      -0.22150000       0.48420000
C       -0.62440000       1.67980000       1.10830000
C       -2.15830000       1.47340000       1.31830000
C       -2.23490000       0.65520000       2.57520000
C       -1.07480000       0.65070000       3.24320000
C       -0.02400000       1.47980000       2.52740000
C       -0.90250000      -0.05400000       4.54070000
O       -1.75890000      -0.70750000       5.07580000
O        0.31730000       0.07460000       5.12760000
H       -0.41090000       2.68240000       0.72820000
H       -2.68340000       2.42990000       1.45640000
H       -2.62600000       0.98800000       0.45350000
H       -3.12540000       0.14490000       2.92270000
H        0.95510000       0.99280000       2.44210000
H        0.13230000       2.44140000       3.03490000
