16
Properties=species:S:1:pos:R:3 gdb_105573=T pbc="F F F"
C       -0.07680000       1.50430000       0.02010000
O       -0.02260000       0.07770000      -0.08330000
C       -1.25600000      -0.56490000       0.00090000
C       -1.08280000      -2.11210000       0.15040000
N       -1.85230000      -2.01390000       1.39760000
C       -1.89760000      -0.63140000       1.41850000
N       -2.24220000       0.28860000       2.20960000
C       -2.18680000      -0.16040000      -1.06540000
N       -2.90750000       0.15940000      -1.91010000
H        0.95950000       1.84310000      -0.01920000
H       -0.63300000       1.93700000      -0.82060000
H       -0.54020000       1.81160000       0.96200000
H       -1.54510000      -2.73110000      -0.62120000
H       -0.02590000      -2.36410000       0.27320000
H       -1.82950000      -2.64350000       2.18580000
H       -2.55860000      -0.07050000       3.11200000
