19
Properties=species:S:1:pos:R:3 gdb_31807=T pbc="F F F"
C        0.05900000       1.55250000      -0.07840000
C       -0.00700000       0.02330000       0.07810000
C       -1.41610000      -0.51740000       0.04530000
C       -2.10010000      -0.85820000       1.20940000
N       -3.35210000      -1.32050000       1.25850000
C       -4.01110000      -1.46240000       0.10460000
N       -5.32740000      -1.88410000       0.19610000
C       -3.42360000      -1.15750000      -1.13620000
C       -2.12360000      -0.68790000      -1.15180000
H        1.09490000       1.90610000      -0.05710000
H       -0.38730000       1.87010000      -1.02650000
H       -0.48900000       2.05100000       0.72740000
H        0.58630000      -0.44460000      -0.71750000
H        0.46750000      -0.26320000       1.02380000
H       -1.60000000      -0.76090000       2.17250000
H       -5.54740000      -2.31040000       1.08430000
H       -5.69740000      -2.38110000      -0.59910000
H       -3.98370000      -1.28990000      -2.05600000
H       -1.64790000      -0.45300000      -2.10050000
