19
Properties=species:S:1:pos:R:3 gdb_121602=T pbc="F F F"
C       -0.04910000       1.34650000       0.05000000
O        0.01980000      -0.05800000       0.01020000
C        0.65630000      -0.54020000      -1.15280000
C        0.66710000      -2.05920000      -1.07540000
C        1.33150000      -2.69730000      -2.26770000
O        1.82070000      -2.05870000      -3.17790000
C        1.37360000      -4.22140000      -2.31990000
N        2.10510000      -4.67880000      -3.37720000
N        0.76580000      -4.87300000      -1.40060000
H        0.95210000       1.80640000       0.03820000
H       -0.62030000       1.75290000      -0.80000000
H       -0.55360000       1.62370000       0.97890000
H        0.12570000      -0.20450000      -2.05830000
H        1.68420000      -0.15100000      -1.22800000
H        1.17700000      -2.39900000      -0.16650000
H       -0.34900000      -2.45680000      -0.98260000
H        2.35800000      -3.99110000      -4.07100000
H        2.03020000      -5.63990000      -3.66270000
H        0.84870000      -5.88350000      -1.53330000
