11
Properties=species:S:1:pos:R:3 gdb_131073=T pbc="F F F"
O        0.06820000      -0.04440000       0.08750000
C        0.00530000       1.12560000      -0.06930000
O        1.10000000       1.93330000       0.25590000
C        0.93930000       3.26300000       0.19010000
N       -0.16880000       3.90750000       0.32560000
O        0.20590000       5.27160000       0.17080000
C        1.55920000       5.38180000      -0.03110000
O        2.16280000       6.39970000      -0.18080000
N        2.01850000       4.06520000      -0.01910000
H       -0.83130000       1.71280000      -0.46990000
H        2.97650000       3.78560000      -0.14530000
