23
Properties=species:S:1:pos:R:3 gdb_113189=T pbc="F F F"
C        0.04750000       1.51210000      -0.25020000
C        0.00010000       0.03300000       0.14210000
O        0.64450000      -0.18570000       1.39950000
C       -1.40740000      -0.56210000       0.11590000
C       -2.44490000       0.16860000       0.95270000
C       -1.87220000      -1.20490000      -1.17310000
C       -1.55910000      -2.06600000       0.02700000
C       -0.40170000      -3.03120000       0.03660000
O       -0.86820000      -4.26080000      -0.51080000
H        1.08530000       1.85470000      -0.28120000
H       -0.40520000       1.67310000      -1.23370000
H       -0.49080000       2.13590000       0.47210000
H        0.61970000      -0.52050000      -0.57010000
H        0.20600000       0.36600000       2.05590000
H       -2.62380000       1.18620000       0.58960000
H       -3.40230000      -0.35970000       0.93060000
H       -2.14050000       0.23460000       2.00500000
H       -2.90770000      -1.08140000      -1.47250000
H       -1.17330000      -1.23700000      -2.00410000
H       -2.42170000      -2.46820000       0.55290000
H        0.44210000      -2.63980000      -0.54980000
H       -0.04270000      -3.16640000       1.06810000
H       -0.15940000      -4.90610000      -0.43120000
