17
Properties=species:S:1:pos:R:3 gdb_124818=T pbc="F F F"
C       -0.12030000       1.54210000      -0.12270000
C        0.07980000       0.02820000      -0.16990000
O        1.06360000      -0.33850000      -1.13210000
C        0.40990000      -0.54290000       1.22060000
C        0.53830000      -2.03030000       1.24670000
C        0.87210000      -2.97560000       0.32340000
N        0.81390000      -4.19380000       0.95750000
N        0.48370000      -4.05960000       2.16090000
O        0.28950000      -2.65240000       2.40060000
H        0.78190000       2.04380000       0.24940000
H       -0.33470000       1.92150000      -1.12480000
H       -0.94940000       1.81400000       0.53780000
H       -0.83950000      -0.44770000      -0.52960000
H        1.88190000       0.12200000      -0.91280000
H        1.34540000      -0.09070000       1.58180000
H       -0.36440000      -0.24840000       1.93720000
H        1.14120000      -2.86580000      -0.71090000
