23
Properties=species:S:1:pos:R:3 gdb_95408=T pbc="F F F"
C       -0.16610000       1.53620000       0.02780000
C       -0.01770000       0.03760000       0.00770000
C       -0.05530000      -0.65340000      -1.13500000
C        0.08960000      -2.15030000      -1.26480000
C        1.41720000      -2.71860000      -0.72380000
C        1.51410000      -2.77300000       0.80490000
O        2.73070000      -3.39590000       1.21070000
C        1.49520000      -1.41570000       1.50760000
C        0.17950000      -0.62760000       1.35750000
H        0.71470000       2.01520000       0.47610000
H       -0.30280000       1.94710000      -0.97610000
H       -1.02540000       1.83930000       0.64070000
H       -0.19540000      -0.10260000      -2.06310000
H       -0.74220000      -2.66030000      -0.75520000
H       -0.00030000      -2.42380000      -2.32070000
H        1.53310000      -3.74600000      -1.09890000
H        2.26210000      -2.14080000      -1.11590000
H        0.65300000      -3.35790000       1.17820000
H        2.80270000      -4.23590000       0.74600000
H        1.68080000      -1.60910000       2.56980000
H        2.33720000      -0.81460000       1.14450000
H        0.14760000       0.13900000       2.13840000
H       -0.66420000      -1.30110000       1.56840000
