20
Properties=species:S:1:pos:R:3 gdb_99624=T pbc="F F F"
C       -0.76370000       1.14010000       0.28850000
C       -0.13400000      -0.23230000       0.18270000
C        1.23580000      -0.41640000      -0.42140000
C        1.02270000      -0.69220000       1.04730000
C        1.64370000       0.19630000       2.11510000
C        0.88650000       0.10280000       3.46470000
O        1.43730000       0.93270000       4.45980000
C        3.05150000      -0.15630000       2.34100000
N        4.14640000      -0.44560000       2.57540000
H       -0.02320000       1.92390000       0.47400000
H       -1.27330000       1.39670000      -0.64630000
H       -1.50720000       1.18370000       1.09200000
H       -0.84960000      -1.01880000      -0.04280000
H        1.42060000      -1.25470000      -1.08320000
H        1.78710000       0.48240000      -0.68170000
H        1.00510000      -1.74060000       1.33320000
H        1.62410000       1.24520000       1.80010000
H       -0.13930000       0.44520000       3.30360000
H        0.84440000      -0.95100000       3.77910000
H        2.31980000       0.60530000       4.66950000
