12
Properties=species:S:1:pos:R:3 gdb_5468=T pbc="F F F"
O        0.12650000       1.37020000       0.05240000
C        0.08150000       0.02900000      -0.00630000
C        0.01770000      -0.73780000      -1.15910000
N       -0.00760000      -2.04710000      -0.67020000
C        0.03990000      -1.98850000       0.67680000
N        0.09480000      -0.74130000       1.11280000
C       -0.01810000      -0.41400000      -2.52170000
C       -0.04970000      -0.15280000      -3.69870000
H        0.16560000       1.60110000       0.98900000
H       -0.05350000      -2.87300000      -1.24300000
H        0.03280000      -2.87010000       1.29910000
H       -0.07680000       0.09410000      -4.73060000
