13
Properties=species:S:1:pos:R:3 gdb_18548=T pbc="F F F"
O       -0.02240000       0.05850000      -0.60550000
C       -0.00160000       1.15830000      -0.14850000
C       -1.09300000       2.12440000       0.37350000
C        0.00010000       3.20340000       0.56380000
O        0.32480000       3.46680000       1.94330000
C        1.37760000       2.65790000       2.22460000
N        1.90070000       1.94290000       1.31350000
C        1.12100000       2.20810000       0.09980000
H       -1.85810000       2.35680000      -0.37290000
H       -1.58760000       1.80900000       1.29660000
H       -0.14540000       4.15420000       0.05410000
H        1.71460000       2.70160000       3.25390000
H        1.76440000       2.43510000      -0.75360000
