16
Properties=species:S:1:pos:R:3 gdb_10930=T pbc="F F F"
C        0.03510000       1.55600000       0.02760000
C       -0.03810000       0.06050000       0.07490000
C       -1.33010000      -0.77530000      -0.00180000
C       -0.68120000      -1.81680000       0.98400000
C       -0.53500000      -3.18750000       0.51370000
N       -0.40350000      -4.26200000       0.10620000
C        0.60020000      -0.94870000       0.99470000
N        1.11070000      -0.73080000      -0.34630000
H        1.04780000       1.89350000       0.26090000
H       -0.22020000       1.92590000      -0.97240000
H       -0.66170000       2.00930000       0.74040000
H       -2.19940000      -0.29160000       0.44860000
H       -1.60190000      -1.14720000      -0.99350000
H       -1.18980000      -1.81490000       1.95100000
H        1.27030000      -0.83870000       1.83950000
H        0.89830000      -1.48750000      -0.99500000
