25
Properties=species:S:1:pos:R:3 gdb_122162=T pbc="F F F"
C        0.13680000       1.42430000      -0.52760000
C       -0.01220000       0.06430000       0.15970000
C       -1.38610000      -0.57540000      -0.06670000
C       -1.53060000      -1.94220000       0.62010000
C       -2.86040000      -2.62080000       0.33390000
C       -4.07280000      -1.99520000       0.99700000
O       -3.07340000      -2.99250000      -1.04340000
C       -2.95010000      -4.03960000      -0.07260000
C       -1.80050000      -5.00250000      -0.22650000
H        1.12650000       1.85660000      -0.34990000
H        0.00090000       1.33630000      -1.61120000
H       -0.60910000       2.13760000      -0.15950000
H        0.76850000      -0.61740000      -0.20340000
H        0.16360000       0.17720000       1.23810000
H       -2.16340000       0.11200000       0.29100000
H       -1.56120000      -0.70680000      -1.14160000
H       -0.70720000      -2.58380000       0.29350000
H       -1.42270000      -1.82600000       1.70700000
H       -4.18890000      -0.94800000       0.70100000
H       -4.98360000      -2.52720000       0.71120000
H       -3.97830000      -2.02630000       2.08810000
H       -3.90080000      -4.53280000       0.14900000
H       -0.86680000      -4.49500000      -0.47490000
H       -1.65510000      -5.57660000       0.69530000
H       -2.01760000      -5.71380000      -1.03070000
