20
Properties=species:S:1:pos:R:3 gdb_78923=T pbc="F F F"
C       -0.04680000       1.64020000       0.03510000
C        0.04160000       0.12550000       0.01310000
C        1.09400000      -0.60210000      -0.84890000
C        2.49660000      -0.23560000      -0.34710000
C        2.22540000      -0.27370000       1.17890000
C        0.73890000      -0.65190000       1.14860000
N        1.10880000      -1.77590000       0.15540000
C        2.59440000      -1.51820000       0.42590000
C        3.63860000      -2.56740000       0.58530000
H        0.93540000       2.08730000       0.22060000
H       -0.41880000       2.02940000      -0.91890000
H       -0.72750000       1.98600000       0.82070000
H       -0.93560000      -0.33550000      -0.17220000
H        0.94020000      -0.82470000      -1.90550000
H        3.27540000       0.37370000      -0.78760000
H        2.79950000       0.30690000       1.88970000
H        0.23240000      -0.92400000       2.07530000
H        3.71880000      -3.18380000      -0.31680000
H        4.61570000      -2.10870000       0.77160000
H        3.40730000      -3.22860000       1.42770000
