11
Properties=species:S:1:pos:R:3 gdb_447=T pbc="F F F"
N       -0.06980000       1.26830000      -0.22340000
C        0.00330000       0.03140000      -0.01740000
O        1.02060000      -0.64240000       0.59890000
C        0.79340000      -2.04830000       0.46730000
C       -0.70530000      -2.11490000       0.15910000
O       -0.97160000      -0.82880000      -0.40050000
H        0.77900000       1.72640000       0.09950000
H        1.40590000      -2.44190000      -0.35210000
H        1.07360000      -2.54180000       1.39970000
H       -0.97100000      -2.87910000      -0.57350000
H       -1.30950000      -2.25260000       1.06350000
