15
Properties=species:S:1:pos:R:3 gdb_71382=T pbc="F F F"
C       -0.03760000       1.39960000      -0.02680000
C        0.02460000      -0.08900000      -0.02130000
O       -1.16160000      -0.85670000      -0.28010000
C       -0.42300000      -2.01350000       0.21570000
C        0.62710000      -1.08600000       0.90130000
C        1.22710000      -0.90130000      -0.54700000
O        2.44740000      -0.36270000      -0.84580000
C        0.65150000      -2.24930000      -0.88370000
O        1.01270000      -3.19220000      -1.52530000
H        0.95470000       1.81540000       0.16860000
H       -0.38460000       1.76330000      -0.99980000
H       -0.72700000       1.76120000       0.74100000
H       -1.02820000      -2.80090000       0.65450000
H        1.14540000      -1.07780000       1.84860000
H        2.35990000       0.20970000      -1.61670000
