22
Properties=species:S:1:pos:R:3 gdb_95975=T pbc="F F F"
C        0.36270000       1.55040000      -0.43340000
C       -0.06850000       0.17440000       0.09110000
C       -0.00950000      -0.91390000      -0.99890000
C        1.47590000      -1.33680000      -1.05910000
C        2.04610000      -1.05780000       0.35970000
C        0.89320000      -0.42010000       1.16830000
C        1.36920000       0.60980000       2.18840000
N        0.54890000       0.76330000       3.27110000
O        2.38340000       1.26940000       2.05300000
H        1.38400000       1.53720000      -0.82450000
H       -0.30500000       1.87060000      -1.24010000
H        0.33050000       2.31000000       0.35250000
H       -1.08270000       0.26320000       0.49800000
H       -0.62870000      -1.76640000      -0.69470000
H       -0.39460000      -0.56430000      -1.96190000
H        1.58510000      -2.38450000      -1.35190000
H        2.01290000      -0.74800000      -1.80860000
H        2.40690000      -1.96760000       0.84690000
H        2.88380000      -0.35810000       0.32980000
H        0.33900000      -1.20550000       1.69730000
H       -0.32030000       0.26780000       3.36050000
H        0.76360000       1.49090000       3.93320000
