19
Properties=species:S:1:pos:R:3 gdb_29265=T pbc="F F F"
C       -0.47710000       1.39580000       0.06250000
C       -0.08850000      -0.05000000      -0.02010000
C        0.62430000      -0.65120000      -1.03340000
N        0.78100000      -1.97850000      -0.72140000
C        0.17380000      -2.25540000       0.48310000
C       -0.36830000      -1.06980000       0.93740000
C        0.17770000      -3.62330000       1.03220000
C       -0.74190000      -4.00520000       2.12950000
N       -0.96460000      -4.55100000       0.78170000
H       -0.05200000       1.88190000       0.94860000
H       -0.12840000       1.94880000      -0.81470000
H       -1.56460000       1.52240000       0.12070000
H        1.03470000      -0.23890000      -1.94190000
H        1.23580000      -2.66250000      -1.30100000
H       -0.89060000      -0.93700000       1.87340000
H        1.13430000      -4.14120000       0.97890000
H       -0.41860000      -4.72930000       2.87170000
H       -1.42720000      -3.25060000       2.50410000
H       -1.70870000      -4.01770000       0.33540000
