23
Properties=species:S:1:pos:R:3 gdb_91420=T pbc="F F F"
C        0.06970000       1.58950000      -0.10070000
C        0.06690000       0.06060000      -0.02170000
C        0.61210000      -0.58520000      -1.32320000
C        1.03470000      -2.02920000      -1.05780000
C        0.16550000      -2.70970000       0.02240000
C        1.15490000      -1.98640000       0.95910000
O        2.14430000      -1.98840000      -0.11310000
C        0.76670000      -0.52760000       1.25040000
C        2.00390000       0.24200000       1.73310000
H        1.08320000       1.98750000      -0.21200000
H       -0.51410000       1.92830000      -0.96360000
H       -0.37170000       2.04020000       0.79510000
H       -0.98430000      -0.24310000       0.05340000
H       -0.15000000      -0.53340000      -2.11090000
H        1.49300000      -0.04580000      -1.69140000
H        1.28830000      -2.58430000      -1.96530000
H       -0.89950000      -2.47730000       0.08140000
H        0.31760000      -3.79000000       0.03740000
H        1.51920000      -2.50820000       1.84960000
H        0.02770000      -0.52760000       2.06430000
H        2.78160000       0.25150000       0.96520000
H        1.76200000       1.27380000       2.00010000
H        2.42550000      -0.23860000       2.62320000
