18
Properties=species:S:1:pos:R:3 gdb_31962=T pbc="F F F"
C        0.27660000       1.54600000      -0.07610000
C       -0.01700000       0.04410000       0.08500000
C        0.54650000      -0.54390000       1.32730000
C        0.04710000      -1.12330000       2.44070000
N        1.08330000      -1.48890000       3.30660000
C        2.14070000      -1.10830000       2.66720000
O        3.41550000      -1.20140000       3.01380000
C        3.64240000      -1.81750000       4.28610000
O        1.93080000      -0.53030000       1.47100000
H        1.35420000       1.73080000      -0.09140000
H       -0.14740000       1.92360000      -1.01120000
H       -0.15200000       2.11820000       0.75210000
H       -1.09810000      -0.12970000       0.10200000
H        0.37160000      -0.49630000      -0.78840000
H       -0.98560000      -1.31050000       2.68990000
H        3.25490000      -2.84000000       4.29150000
H        4.72340000      -1.81580000       4.42460000
H        3.15120000      -1.24890000       5.08050000
