18
Properties=species:S:1:pos:R:3 gdb_9804=T pbc="F F F"
C       -0.06550000       1.52330000       0.32020000
C       -0.00160000       0.02470000       0.09650000
C        1.26170000      -0.58720000      -0.46760000
C        0.89980000      -0.79920000       0.98170000
C       -1.32480000      -0.61290000      -0.31910000
O       -2.33190000      -0.39300000       0.63140000
C       -1.77150000      -0.09950000      -1.67690000
O       -2.86160000       0.39180000      -1.84680000
H        0.89530000       1.90640000       0.67560000
H       -0.31660000       2.06280000      -0.60110000
H       -0.82810000       1.76070000       1.06710000
H        1.17810000      -1.43460000      -1.14110000
H        2.08260000       0.08120000      -0.70300000
H        1.47770000      -0.27540000       1.73510000
H        0.56000000      -1.78290000       1.28710000
H       -1.14820000      -1.69750000      -0.45290000
H       -3.07320000      -0.00440000       0.13990000
H       -1.04150000      -0.20480000      -2.50430000
