18
Properties=species:S:1:pos:R:3 gdb_93448=T pbc="F F F"
C       -0.20220000       1.51330000      -0.00350000
C        0.03080000       0.00540000      -0.00490000
N        0.78570000      -0.41440000      -1.18210000
C        0.98030000      -1.85740000      -1.22120000
C        1.81190000      -2.29650000      -0.03730000
N        2.59340000      -3.29440000      -0.13080000
N        1.59760000      -1.53820000       1.11520000
C        0.78030000      -0.42710000       1.25710000
O        0.66710000       0.12670000       2.32830000
H        0.74870000       2.04350000      -0.10150000
H       -0.84790000       1.79840000      -0.84000000
H       -0.67790000       1.81680000       0.92980000
H       -0.95290000      -0.50610000       0.06040000
H        0.31040000      -0.10310000      -2.02170000
H        0.03030000      -2.42690000      -1.19230000
H        1.51300000      -2.14750000      -2.12740000
H        3.05690000      -3.50160000       0.75670000
H        2.09770000      -1.79410000       1.95790000
