20
Properties=species:S:1:pos:R:3 gdb_94000=T pbc="F F F"
C        0.18150000       1.69020000      -0.00530000
C        0.04200000       0.16420000       0.01490000
C        0.70430000      -0.53580000      -1.19360000
O        0.54140000       0.24690000      -2.35760000
C        2.16070000      -0.73750000      -0.73670000
C        2.02550000      -1.08160000       0.75330000
N        0.74850000      -0.46480000       1.13510000
C        0.24860000      -0.60890000       2.38540000
O        0.82100000      -1.17810000       3.29430000
H        1.23030000       1.99730000      -0.04860000
H       -0.33230000       2.10570000      -0.87500000
H       -0.25760000       2.11670000       0.90140000
H       -1.02150000      -0.09270000       0.06540000
H        0.22760000      -1.52050000      -1.31900000
H        0.92630000      -0.23060000      -3.09860000
H        2.67960000      -1.51790000      -1.29930000
H        2.70690000       0.20000000      -0.88010000
H        1.97990000      -2.16210000       0.93130000
H        2.84530000      -0.69310000       1.36400000
H       -0.75420000      -0.14830000       2.49500000
