19
Properties=species:S:1:pos:R:3 gdb_106633=T pbc="F F F"
O       -0.07510000       1.42940000       0.02800000
C        0.00020000       0.00800000       0.01780000
C       -1.39910000      -0.53920000       0.05540000
C       -2.33880000      -0.47640000       1.30030000
C       -3.08840000      -1.56930000       0.51260000
O       -3.54630000      -0.89940000      -0.68160000
C       -2.38410000      -0.09650000      -1.03330000
C       -1.70410000      -2.08940000       0.06040000
O       -1.62250000      -2.83120000      -1.11760000
H        0.81900000       1.77900000      -0.02990000
H        0.50510000      -0.35940000      -0.89070000
H        0.56810000      -0.36730000       0.88390000
H       -1.86600000      -0.84780000       2.21190000
H       -2.87350000       0.45550000       1.48780000
H       -3.88580000      -2.19550000       0.90940000
H       -2.62950000       0.96730000      -0.98790000
H       -2.04800000      -0.34950000      -2.04540000
H       -1.14780000      -2.61030000       0.84290000
H       -2.39840000      -2.58690000      -1.64030000
