20
Properties=species:S:1:pos:R:3 gdb_66353=T pbc="F F F"
C       -0.01750000       1.55270000       0.01080000
C       -0.02180000       0.01170000       0.00250000
C        0.68960000      -0.54010000      -1.26210000
C        0.87310000      -2.05750000      -1.18800000
O        1.57900000      -2.43980000      -0.02030000
C        0.88730000      -2.07010000       1.15990000
C        0.70490000      -0.55360000       1.25240000
C       -1.42170000      -0.44990000       0.00850000
N       -2.52140000      -0.80730000       0.01340000
H        1.01450000       1.91580000       0.00640000
H       -0.52860000       1.95080000      -0.87020000
H       -0.51780000       1.94130000       0.90210000
H        0.13010000      -0.26840000      -2.16330000
H        1.67440000      -0.06300000      -1.32300000
H       -0.10830000      -2.55830000      -1.22200000
H        1.46360000      -2.41390000      -2.03640000
H       -0.09360000      -2.57120000       1.20040000
H        1.48800000      -2.43550000       1.99720000
H        1.69040000      -0.07710000       1.30650000
H        0.15640000      -0.29150000       2.16330000
