21
Properties=species:S:1:pos:R:3 gdb_120047=T pbc="F F F"
C       -0.06690000       1.56900000       0.00140000
C       -0.04420000       0.03970000       0.06620000
C        0.76610000      -0.50000000       1.25160000
C        0.80580000      -2.02100000       1.31060000
C        1.50190000      -2.74340000       2.46940000
C        0.41500000      -2.87970000       3.55240000
O       -0.76370000      -2.22220000       3.08720000
C       -0.46200000      -2.80060000       1.78380000
C        0.47720000      -3.87480000       2.44770000
H        0.94600000       1.97530000      -0.09760000
H       -0.65350000       1.92600000      -0.85110000
H       -0.50530000       1.99580000       0.91020000
H       -1.07360000      -0.33680000       0.12960000
H        0.36830000      -0.36100000      -0.86990000
H        1.79530000      -0.11890000       1.19260000
H        0.34550000      -0.12420000       2.19080000
H        1.14720000      -2.45040000       0.36120000
H        2.55950000      -2.80230000       2.69460000
H        0.59710000      -2.94770000       4.61640000
H       -1.34370000      -2.95220000       1.16480000
H        0.56050000      -4.95110000       2.40070000
