18
Properties=species:S:1:pos:R:3 gdb_83176=T pbc="F F F"
C       -0.53990000       1.39410000       0.08940000
C       -0.09150000      -0.04420000      -0.03190000
C        0.73300000      -0.51650000      -1.21070000
O        1.18890000       0.44630000      -2.11240000
C        2.60580000       0.55350000      -2.05630000
C        3.06970000       0.99420000      -0.68480000
N        4.08080000       1.73630000      -0.53900000
O        2.30910000       0.57500000       0.37150000
C        1.35440000      -0.44340000       0.15670000
H        0.18040000       2.07410000      -0.36610000
H       -1.50060000       1.53710000      -0.41470000
H       -0.66160000       1.67480000       1.14010000
H       -0.80010000      -0.78070000       0.33860000
H        0.53070000      -1.48960000      -1.65700000
H        3.07830000      -0.40440000      -2.32240000
H        2.91400000       1.30430000      -2.78330000
H        4.25730000       1.90860000       0.45320000
H        1.60120000      -1.34760000       0.70420000
