16
Properties=species:S:1:pos:R:3 gdb_129668=T pbc="F F F"
N        0.09340000       1.42880000       0.10430000
C        0.02410000       0.04370000       0.02220000
C       -1.04730000      -0.80160000      -0.18690000
N       -0.58400000      -2.07880000      -0.27780000
N        0.70710000      -2.08920000      -0.13090000
N        1.08770000      -0.79320000       0.04200000
N       -2.38660000      -0.38250000      -0.28770000
C       -3.23250000      -1.06520000      -1.28300000
C       -3.42100000      -1.32660000       0.16510000
H        0.58830000       1.76860000       0.92100000
H       -0.84660000       1.80990000       0.09410000
H        2.06520000      -0.57290000       0.14120000
H       -3.92190000      -0.41950000      -1.81910000
H       -2.76150000      -1.84740000      -1.87070000
H       -3.07680000      -2.28360000       0.54490000
H       -4.25070000      -0.87340000       0.70000000
