18
Properties=species:S:1:pos:R:3 gdb_6486=T pbc="F F F"
C        0.68570000       1.07110000      -1.30690000
C       -0.39260000       0.17870000      -0.73050000
O       -0.92060000       0.39220000       0.33700000
C       -0.75420000      -1.05760000      -1.55930000
C        0.14340000      -2.23480000      -1.17950000
C       -0.05500000      -2.80680000       0.20640000
C        0.71310000      -3.07210000      -2.24610000
O        1.51410000      -2.08290000      -1.59260000
H        1.55280000       0.46210000      -1.58410000
H        0.32210000       1.54390000      -2.22740000
H        0.96470000       1.84180000      -0.58760000
H       -1.79700000      -1.31490000      -1.35220000
H       -0.63980000      -0.84690000      -2.62650000
H       -1.04410000      -3.26930000       0.29100000
H        0.70550000      -3.56290000       0.41420000
H        0.00800000      -2.02290000       0.96580000
H        0.98560000      -4.10480000      -2.03170000
H        0.46980000      -2.86560000      -3.28770000
