19
Properties=species:S:1:pos:R:3 gdb_32914=T pbc="F F F"
C       -0.06800000       1.53710000       0.21830000
C       -0.10690000       0.01190000       0.33490000
C       -1.35660000      -0.60220000      -0.32710000
C       -1.41300000      -2.09270000      -0.25150000
N       -1.19850000      -2.93100000      -1.23550000
C       -1.32610000      -4.20350000      -0.70510000
C       -1.62330000      -4.11400000       0.62680000
O       -1.85930000      -4.99860000       1.62670000
N       -1.67790000      -2.77550000       0.91890000
H        0.82690000       1.95000000       0.69390000
H       -0.06380000       1.85210000      -0.83090000
H       -0.94140000       1.99530000       0.69630000
H        0.78510000      -0.42430000      -0.12900000
H       -0.07290000      -0.27820000       1.39330000
H       -2.25690000      -0.16360000       0.12620000
H       -1.37660000      -0.33990000      -1.38900000
H       -1.20230000      -5.09060000      -1.30700000
H       -1.79120000      -5.88800000       1.26610000
H       -1.88600000      -2.39080000       1.82520000
