13
Properties=species:S:1:pos:R:3 gdb_46338=T pbc="F F F"
N        0.02150000       1.22710000      -0.25520000
C        0.02260000       0.00490000      -0.00850000
O        1.03000000      -0.86930000       0.33060000
C        0.10430000      -1.98550000       0.47050000
C       -1.07230000      -1.07180000       0.02050000
C       -2.17770000      -0.88300000       0.92680000
C       -3.09790000      -0.73580000       1.69500000
C       -4.13740000      -0.57260000       2.56470000
N       -5.02190000      -0.43950000       3.30580000
H        0.95350000       1.63750000      -0.18400000
H        0.35810000      -2.80150000      -0.20820000
H        0.05480000      -2.33220000       1.50390000
H       -1.43350000      -1.30380000      -0.98610000
