12
Properties=species:S:1:pos:R:3 gdb_130489=T pbc="F F F"
O       -0.04280000       1.26950000       0.00890000
C        1.12330000       1.97410000       0.00220000
N        2.32190000       1.52300000      -0.01140000
C        2.39650000       0.15310000      -0.01980000
C        3.39690000      -0.76040000      -0.03480000
N        2.87670000      -2.07710000      -0.03710000
C        1.57620000      -2.02350000      -0.02320000
C        1.14750000      -0.63130000      -0.01280000
N       -0.03430000      -0.12810000       0.00090000
H        0.89840000       3.03530000       0.01010000
H        4.46480000      -0.60460000      -0.04430000
H        0.94300000      -2.90020000      -0.02160000
