16
Properties=species:S:1:pos:R:3 gdb_43017=T pbc="F F F"
O       -0.02110000      -0.05910000      -0.02220000
C       -0.04160000       1.15150000      -0.09230000
C       -1.33010000       1.90180000      -0.21150000
N       -1.48940000       3.18460000       0.51790000
C       -1.34700000       3.21790000      -0.93230000
C       -0.06890000       3.80810000      -1.50170000
C        1.21740000       3.22300000      -0.95470000
O        1.38190000       3.17380000       0.45020000
C        1.23850000       1.92480000      -0.23560000
H       -2.18990000       1.24360000      -0.29790000
H       -2.46740000       3.28430000       0.77910000
H       -2.23760000       3.42510000      -1.52270000
H       -0.06780000       3.65770000      -2.58880000
H       -0.06390000       4.89280000      -1.33470000
H        2.11950000       3.50210000      -1.50150000
H        2.12670000       1.29590000      -0.25680000
