13
Properties=species:S:1:pos:R:3 gdb_573=T pbc="F F F"
C       -0.31290000      -0.39840000      -0.97750000
C       -0.03330000       0.37830000      -0.10250000
C        0.32780000       1.34840000       0.93690000
N        1.12000000       2.51210000       0.52280000
C        2.12640000       2.34000000      -0.51920000
C        0.87200000       3.09740000      -0.79040000
H       -0.57060000      -1.09620000      -1.73570000
H       -0.58780000       1.72890000       1.40600000
H        0.89160000       0.83560000       1.72570000
H        3.06400000       2.86070000      -0.34700000
H        2.21580000       1.36450000      -0.99180000
H        0.14480000       2.61490000      -1.43950000
H        0.87360000       4.18320000      -0.82040000
