9
Properties=species:S:1:pos:R:3 gdb_23826=T pbc="F F F"
F        0.05600000       0.09390000       0.00250000
C       -0.08430000       1.38940000       0.01150000
N       -1.23260000       1.91250000       0.02990000
C       -1.27510000       3.30080000       0.03800000
N       -2.35040000       3.94840000       0.05650000
O       -0.03250000       3.97000000       0.02550000
N        1.18140000       3.27390000       0.00510000
N        1.16730000       2.03570000      -0.00180000
H       -2.17870000       4.95340000       0.06000000
