21
Properties=species:S:1:pos:R:3 gdb_100558=T pbc="F F F"
C        0.15440000       1.43570000       0.21850000
C       -0.14610000      -0.05190000       0.01720000
N       -1.57530000      -0.34110000      -0.08300000
C       -2.18710000      -0.28430000      -1.39820000
C       -2.25990000      -0.58680000       1.07210000
O       -1.74590000      -0.52390000       2.17690000
N       -3.64010000      -0.88540000       0.87410000
C       -4.01880000      -2.29890000       0.72200000
C       -4.31890000      -1.55010000       1.97260000
H        1.23550000       1.60410000       0.25480000
H       -0.25360000       2.04350000      -0.59580000
H       -0.28050000       1.77880000       1.16050000
H        0.33130000      -0.42150000      -0.89750000
H        0.24860000      -0.62330000       0.85950000
H       -3.26810000      -0.20570000      -1.29720000
H       -1.82340000       0.59540000      -1.94120000
H       -1.94770000      -1.17360000      -1.99780000
H       -4.79550000      -2.50060000      -0.01050000
H       -3.22170000      -3.03730000       0.76380000
H       -3.71510000      -1.76410000       2.84880000
H       -5.32920000      -1.20190000       2.16480000
