17
Properties=species:S:1:pos:R:3 gdb_116720=T pbc="F F F"
C        0.46570000       0.93810000      -0.40630000
O       -0.14060000       0.18030000       0.63730000
C        0.61690000      -0.80390000       1.14880000
N        0.15090000      -1.53110000       2.07130000
C        0.98420000      -2.57020000       2.61160000
C        0.37650000      -3.99360000       2.65890000
O        1.54010000      -4.51660000       1.93920000
C        2.07130000      -3.25830000       1.78360000
N        3.08060000      -2.87020000       1.14390000
H        0.69670000       0.30940000      -1.27410000
H       -0.26260000       1.69620000      -0.69590000
H        1.38200000       1.43110000      -0.06180000
H        1.61590000      -0.90700000       0.70970000
H        1.36410000      -2.26340000       3.59290000
H        0.27540000      -4.46630000       3.63760000
H       -0.53390000      -4.10900000       2.06760000
H        3.55260000      -3.65060000       0.68240000
