11
Properties=species:S:1:pos:R:3 gdb_21877=T pbc="F F F"
O        0.12140000       1.31150000       0.14920000
C        0.07980000      -0.00930000      -0.00720000
N        0.07740000      -0.68090000      -1.12350000
C        0.02540000      -1.98250000      -0.67020000
N       -0.00360000      -2.14480000       0.62800000
N        0.03200000      -0.84100000       1.08180000
C        0.01940000      -0.48140000       2.44130000
O       -0.02330000      -1.26360000       3.34370000
H        0.15060000       1.70320000      -0.73440000
H        0.00920000      -2.82550000      -1.34500000
H        0.05430000       0.61510000       2.55030000
