17
Properties=species:S:1:pos:R:3 gdb_91452=T pbc="F F F"
C       -0.05400000       1.53970000       0.01150000
C        0.07640000       0.03050000       0.08880000
O        0.91810000      -0.49140000      -0.98040000
C        1.89760000      -1.27480000      -0.28270000
C        2.32610000      -0.34840000       0.88620000
C        0.81230000      -0.54900000       1.31860000
O        0.26490000      -0.24040000       2.54290000
C        1.05870000      -1.98340000       0.80780000
O        0.87630000      -3.07900000       1.24860000
H        0.90920000       2.04160000       0.13250000
H       -0.46630000       1.82410000      -0.96110000
H       -0.73350000       1.89260000       0.79330000
H       -0.92000000      -0.42510000       0.01100000
H        2.58140000      -1.76360000      -0.96940000
H        3.03500000      -0.80490000       1.58010000
H        2.62910000       0.65880000       0.60110000
H        0.41960000      -0.98320000       3.13900000
