18
Properties=species:S:1:pos:R:3 gdb_16426=T pbc="F F F"
C        0.04140000       1.47040000      -0.00320000
C        0.04010000      -0.03170000      -0.05910000
C        0.53190000      -0.95650000      -1.19520000
O        1.88420000      -0.93320000      -1.58280000
C        0.04460000      -1.94400000      -0.12110000
C        0.55340000      -1.03400000       1.05540000
C       -0.81660000      -1.06110000       1.75850000
C       -1.15470000      -1.00880000       0.25600000
H        1.05440000       1.86240000      -0.14630000
H       -0.59090000       1.89290000      -0.79200000
H       -0.33000000       1.83940000       0.95920000
H       -0.04760000      -0.92520000      -2.12430000
H        2.42650000      -1.00620000      -0.78980000
H        0.02900000      -3.03490000      -0.12770000
H        1.54590000      -1.04910000       1.51190000
H       -1.07730000      -1.98240000       2.28930000
H       -1.08500000      -0.18670000       2.36020000
H       -2.12990000      -0.99750000      -0.23400000
