11
Properties=species:S:1:pos:R:3 gdb_23673=T pbc="F F F"
O        0.09520000       1.33320000       0.09010000
C        0.07140000      -0.00440000       0.06420000
N        0.07980000      -0.60220000      -1.12900000
C        0.05550000      -1.93300000      -1.11300000
N        0.02390000      -2.72350000      -0.04160000
C        0.01680000      -2.08650000       1.11630000
F       -0.01440000      -2.84490000       2.19940000
C        0.03930000      -0.71180000       1.26560000
H        0.11530000       1.62390000      -0.83340000
H        0.06200000      -2.42820000      -2.08030000
H        0.03260000      -0.22490000       2.23020000
