19
Properties=species:S:1:pos:R:3 gdb_114356=T pbc="F F F"
C        0.69090000       1.53480000      -0.03630000
C        0.24010000       0.10130000       0.12100000
O        0.87160000      -0.82660000      -0.81840000
C        1.23210000      -1.73420000       0.23850000
C        2.63620000      -1.48840000       0.81950000
C        3.75330000      -0.95070000      -0.05320000
O        4.77550000      -0.38860000       0.75210000
O        2.10230000      -0.44790000       1.70410000
C        0.74760000      -0.74040000       1.30850000
H        1.75230000       1.63490000       0.19860000
H        0.51940000       1.87070000      -1.06330000
H        0.12100000       2.18580000       0.63510000
H       -0.85210000       0.02010000       0.02170000
H        0.88770000      -2.75530000       0.06860000
H        2.99410000      -2.32840000       1.42990000
H        4.20780000      -1.76860000      -0.62330000
H        3.34420000      -0.22500000      -0.76760000
H        4.34080000       0.24710000       1.33290000
H        0.08960000      -0.93360000       2.15710000
