15
Properties=species:S:1:pos:R:3 gdb_129670=T pbc="F F F"
N        0.12440000       1.40300000       0.27340000
C       -0.01270000       0.05430000       0.11050000
C       -1.10030000      -0.73490000      -0.20450000
N       -0.61380000      -2.01110000      -0.28890000
N        0.61510000      -2.08330000      -0.07140000
O        1.06950000      -0.69960000       0.20100000
C       -2.51620000      -0.38300000      -0.39870000
C       -3.42430000      -1.27350000      -1.16790000
N       -3.58450000      -1.14310000       0.28900000
H        0.95300000       1.69580000       0.76930000
H       -0.71030000       1.89970000       0.54470000
H       -2.70630000       0.68810000      -0.43060000
H       -4.22790000      -0.84360000      -1.75920000
H       -2.99420000      -2.18860000      -1.56390000
H       -3.16270000      -1.95130000       0.74330000
