19
Properties=species:S:1:pos:R:3 gdb_38011=T pbc="F F F"
C       -0.07900000       1.61520000      -0.01340000
C        1.47390000       1.58980000       0.03690000
C        2.05410000       1.38050000       1.40430000
C        1.65750000       0.21770000       1.96080000
C        2.67980000      -0.91060000       1.75760000
C        1.78540000      -1.10550000       0.46880000
C        1.43310000       0.06610000      -0.55870000
C       -0.04070000       0.08700000      -0.03390000
C        0.54350000      -0.57320000       1.24000000
H       -0.58710000       2.11730000       0.81360000
H       -0.44540000       2.01880000      -0.96220000
H        2.00290000       2.34270000      -0.54900000
H        3.06580000       1.73810000       1.58860000
H        3.72790000      -0.61920000       1.66900000
H        2.58260000      -1.80160000       2.39060000
H        1.76570000      -2.09630000       0.00180000
H        1.69090000      -0.04490000      -1.61170000
H       -0.83460000      -0.49310000      -0.50870000
H       -0.05880000      -1.22770000       1.87220000
