19
Properties=species:S:1:pos:R:3 gdb_69396=T pbc="F F F"
C       -0.03950000       1.56400000      -0.04530000
C        0.02150000       0.05550000      -0.00600000
C       -0.86490000      -0.74110000       0.93210000
C        0.63550000      -0.74850000       1.13540000
C        1.47220000      -1.88440000       0.53600000
C        1.11830000      -3.25220000       1.09880000
O        1.92290000      -4.06470000       1.47580000
C        1.16740000      -1.77520000      -0.95140000
C        0.41080000      -0.71090000      -1.22920000
H        0.91100000       1.99390000      -0.37970000
H       -0.82210000       1.91060000      -0.73030000
H       -0.26430000       1.97400000       0.94410000
H       -1.43980000      -0.18620000       1.66730000
H       -1.36720000      -1.61760000       0.53880000
H        1.01710000      -0.24770000       2.01750000
H        2.54290000      -1.74300000       0.72740000
H        0.02640000      -3.46360000       1.13600000
H        1.53270000      -2.50140000      -1.66800000
H        0.09160000      -0.41530000      -2.22320000
