17
Properties=species:S:1:pos:R:3 gdb_4818=T pbc="F F F"
C        0.05550000       1.37970000      -0.15410000
N       -0.00470000      -0.02070000       0.21060000
C       -1.22590000      -0.66990000       0.11170000
C       -2.49840000      -0.14060000       0.08790000
N       -3.34630000      -1.24110000       0.03740000
C       -4.79060000      -1.20840000       0.00250000
C       -2.55450000      -2.34060000       0.02240000
N       -1.27250000      -2.04200000       0.06450000
H        1.09000000       1.72550000      -0.09210000
H       -0.32720000       1.59040000      -1.16690000
H       -0.53300000       1.97490000       0.55410000
H        0.74290000      -0.58900000      -0.16110000
H       -2.87840000       0.86570000       0.10700000
H       -5.15030000      -0.66060000      -0.87510000
H       -5.16820000      -2.23170000      -0.04810000
H       -5.19580000      -0.73160000       0.90140000
H       -2.96720000      -3.33820000      -0.02200000
