16
Properties=species:S:1:pos:R:3 gdb_42958=T pbc="F F F"
O       -0.01690000       0.04350000       0.19950000
C       -0.04520000       1.23730000       0.05110000
C       -1.27980000       2.08460000      -0.12390000
N       -1.32970000       3.21380000       0.84650000
C       -0.85320000       3.46270000      -0.51680000
C        0.67280000       3.53230000      -0.60170000
C        1.41740000       4.05460000       0.64770000
O        1.73240000       2.70650000       1.07390000
C        1.18800000       2.15110000      -0.14060000
H       -2.20190000       1.61510000      -0.44620000
H       -2.29980000       3.50840000       0.93370000
H       -1.45890000       4.06070000      -1.18940000
H        1.01140000       3.90140000      -1.56970000
H        2.32880000       4.62340000       0.42950000
H        0.80560000       4.58160000       1.38410000
H        1.94850000       1.63430000      -0.73720000
