17
Properties=species:S:1:pos:R:3 gdb_45671=T pbc="F F F"
O       -0.14650000      -0.00810000      -0.00630000
C       -0.07980000       1.18960000       0.01060000
C       -1.26890000       2.17940000       0.07980000
C       -0.62600000       3.42190000       0.65480000
C        0.70410000       3.35590000       0.59180000
C        1.84530000       4.03650000       1.29930000
C        2.77340000       2.84690000       1.52730000
C        2.41250000       1.76400000       0.83270000
C        1.19280000       2.05630000      -0.01020000
H       -1.67490000       2.31350000      -0.93350000
H       -2.08230000       1.77210000       0.68980000
H       -1.19730000       4.20100000       1.14680000
H        2.34310000       4.80040000       0.68270000
H        1.53820000       4.53410000       2.22590000
H        3.64210000       2.91300000       2.17270000
H        2.93280000       0.81450000       0.81670000
H        1.47440000       2.14420000      -1.07490000
