17
Properties=species:S:1:pos:R:3 gdb_15354=T pbc="F F F"
O       -0.12500000       1.33080000      -0.71250000
C        0.02460000       0.11820000       0.01120000
C       -1.33670000      -0.52160000       0.10720000
C       -1.87030000      -1.37600000      -1.01570000
C       -1.54660000      -2.00450000       0.31520000
C       -0.38910000      -2.98450000       0.45980000
C       -0.79380000      -4.35760000       0.14990000
N       -1.12530000      -5.43800000      -0.09060000
H        0.71960000       1.79130000      -0.70410000
H        0.73480000      -0.55480000      -0.49510000
H        0.42050000       0.30830000       1.02220000
H       -2.05990000       0.11730000       0.60620000
H       -2.90910000      -1.27630000      -1.30740000
H       -1.19540000      -1.58120000      -1.84120000
H       -2.39580000      -2.26660000       0.93890000
H        0.43890000      -2.71820000      -0.20450000
H        0.00950000      -2.96880000       1.48160000
