21
Properties=species:S:1:pos:R:3 gdb_103539=T pbc="F F F"
C       -0.59090000       1.19530000       0.16100000
C        0.18020000      -0.09730000      -0.10030000
C        1.27160000       0.01180000      -1.19680000
C        2.34400000      -0.93410000      -0.71940000
C        2.14540000      -1.32740000       0.53610000
C        0.91240000      -0.68180000       1.14340000
O        1.28370000       0.37810000       2.02770000
C        0.03500000      -1.66340000       1.92320000
O        0.77000000      -2.03450000       3.08900000
H        0.07960000       1.98350000       0.51050000
H       -1.08440000       1.53700000      -0.75510000
H       -1.36340000       1.05700000       0.92430000
H       -0.52800000      -0.86900000      -0.43030000
H        0.88360000      -0.24400000      -2.18980000
H        1.66350000       1.03610000      -1.27400000
H        3.18920000      -1.21870000      -1.33770000
H        2.79120000      -1.97620000       1.11660000
H        1.49740000      -0.05150000       2.86630000
H       -0.90880000      -1.16920000       2.19650000
H       -0.19440000      -2.54200000       1.30350000
H        0.17570000      -2.46860000       3.70660000
