17
Properties=species:S:1:pos:R:3 gdb_116129=T pbc="F F F"
O       -0.02160000       1.41490000      -0.03230000
C        0.02470000       0.01250000       0.09500000
C       -1.34700000      -0.61940000      -0.11730000
C       -1.37300000      -2.13130000       0.00980000
O       -2.71100000      -2.58440000      -0.05730000
C       -3.45480000      -2.12530000       1.04910000
C       -3.25990000      -0.65750000       1.41940000
O       -3.97410000      -0.10170000       2.20580000
O       -2.21080000      -0.00140000       0.87300000
H       -0.69600000       1.72710000       0.58280000
H        0.71600000      -0.35580000      -0.67050000
H        0.41270000      -0.29710000       1.07910000
H       -1.73500000      -0.32770000      -1.10030000
H       -0.83640000      -2.58870000      -0.82550000
H       -0.89460000      -2.45290000       0.95010000
H       -4.51300000      -2.27440000       0.82500000
H       -3.22140000      -2.70700000       1.95680000
