20
Properties=species:S:1:pos:R:3 gdb_7442=T pbc="F F F"
C       -0.23080000       1.43460000      -0.06830000
C        0.04200000      -0.07420000      -0.01030000
C        0.77400000      -0.55650000      -1.26920000
C        0.86620000      -0.44930000       1.24900000
O        2.11650000       0.18700000       1.23950000
C        0.13550000      -0.11900000       2.55330000
C       -1.21160000      -0.75100000       2.81640000
O        0.66130000       0.63590000       3.34570000
H        0.71320000       1.98640000      -0.07050000
H       -0.78200000       1.69390000      -0.97710000
H       -0.81890000       1.78260000       0.78810000
H       -0.91460000      -0.61010000       0.05490000
H        1.75790000      -0.08470000      -1.34210000
H        0.92060000      -1.64190000      -1.25350000
H        0.20440000      -0.30580000      -2.16970000
H        1.00640000      -1.54570000       1.24070000
H        2.14770000       0.69000000       2.07040000
H       -1.22520000      -1.80330000       2.51720000
H       -1.46150000      -0.65470000       3.87380000
H       -1.97930000      -0.23730000       2.22640000
