16
Properties=species:S:1:pos:R:3 gdb_49093=T pbc="F F F"
O       -0.52930000       0.71720000       0.69210000
C        0.20400000       1.01770000      -0.21740000
C        1.38110000       1.90950000      -0.06660000
C        1.82040000       2.39200000       1.30860000
O        2.45690000       3.65750000       1.08420000
C        2.79460000       3.68420000      -0.28600000
C        3.64390000       2.45230000      -0.69780000
N        2.41180000       1.71230000      -1.15370000
C        1.64450000       2.98760000      -1.05640000
H        0.05460000       0.64240000      -1.25150000
H        0.95510000       2.52700000       1.96230000
H        2.51230000       1.69010000       1.79120000
H        3.12850000       4.68470000      -0.55630000
H        4.27040000       2.63190000      -1.57420000
H        4.23060000       1.96220000       0.08440000
H        0.96510000       3.35060000      -1.81820000
