17
Properties=species:S:1:pos:R:3 gdb_37998=T pbc="F F F"
C       -0.09060000       1.34700000       0.22740000
C        1.39880000       1.50930000      -0.21030000
C        2.36950000       0.28350000      -0.21540000
C        2.45940000      -1.07800000       0.45700000
O        1.90500000      -1.41020000       1.72610000
C        1.25920000      -1.93620000       0.53200000
C        0.00150000      -1.15750000       0.35550000
C        0.05720000      -0.03990000      -0.37730000
C        1.26240000       0.39120000      -1.21530000
H       -0.36220000       1.40380000       1.28490000
H       -0.67870000       2.06410000      -0.35660000
H        1.85660000       2.48050000      -0.37380000
H        3.34470000       0.63210000      -0.55260000
H        3.42360000      -1.55550000       0.27700000
H        1.32960000      -3.01580000       0.42490000
H       -0.71710000      -1.22970000       1.16980000
H        1.34760000       0.39510000      -2.29440000
