21
Properties=species:S:1:pos:R:3 gdb_63816=T pbc="F F F"
C       -0.31440000       1.61220000      -0.02810000
C       -0.00400000       0.12440000       0.02190000
C       -1.25060000      -0.70330000      -0.29100000
O        1.07260000      -0.27320000      -0.90660000
C        1.71750000      -1.07320000       0.11720000
C        2.96770000      -0.46760000       0.79470000
C        2.86930000       1.02170000       0.82290000
C        2.03670000       0.23320000       1.80520000
C        0.80360000      -0.48410000       1.19970000
H       -0.57270000       1.90320000      -1.05190000
H       -1.17580000       1.83440000       0.61060000
H        0.52010000       2.22730000       0.30730000
H       -1.61970000      -0.46470000      -1.29350000
H       -1.02740000      -1.77380000      -0.25830000
H       -2.04830000      -0.49520000       0.43030000
H        1.76270000      -2.13470000      -0.13710000
H        3.89500000      -1.00130000       0.96440000
H        3.71640000       1.52530000       1.27860000
H        2.43920000       1.54100000      -0.02340000
H        2.18150000       0.36290000       2.87100000
H        0.26560000      -1.11410000       1.90790000
