18
Properties=species:S:1:pos:R:3 gdb_48701=T pbc="F F F"
O       -0.14360000       0.02880000       0.03230000
C        0.00410000       1.22520000      -0.05600000
C        1.29760000       1.91080000       0.00390000
C        1.42170000       3.38370000       0.32250000
C        1.80710000       2.95290000      -1.05220000
C        3.14220000       2.23900000      -1.04380000
C        4.00860000       2.00630000      -2.21500000
N        4.46630000       2.85310000      -1.09040000
C        2.67020000       1.22740000       0.01820000
H       -0.86630000       1.90580000      -0.21050000
H        0.48270000       3.92510000       0.39400000
H        2.17680000       3.69310000       1.04000000
H        1.27670000       3.29920000      -1.93210000
H        4.53790000       1.06300000      -2.32120000
H        3.74140000       2.48380000      -3.15510000
H        4.39190000       3.83720000      -1.33950000
H        3.20390000       1.24970000       0.97200000
H        2.62170000       0.20100000      -0.34990000
