18
Properties=species:S:1:pos:R:3 gdb_29696=T pbc="F F F"
C        0.02220000       1.46000000      -0.01890000
N        0.03170000       0.01270000       0.00090000
C        0.04660000      -0.82850000      -1.06490000
C        0.05490000      -0.36510000      -2.48220000
N        0.05190000      -2.09890000      -0.67940000
C        0.04030000      -2.06480000       0.67990000
O        0.04180000      -3.19770000       1.42640000
C        0.02740000      -0.78010000       1.15960000
N        0.01240000      -0.20210000       2.44260000
H        0.91500000       1.85520000      -0.51470000
H       -0.86310000       1.84290000      -0.53710000
H        0.00700000       1.80170000       1.01690000
H        0.93210000       0.25280000      -2.71030000
H        0.07250000      -1.24080000      -3.13230000
H       -0.83310000       0.23020000      -2.72800000
H        0.05210000      -3.92790000       0.79610000
H        0.82740000      -0.46290000       2.98810000
H       -0.80730000      -0.47560000       2.97460000
