20
Properties=species:S:1:pos:R:3 gdb_82413=T pbc="F F F"
C       -0.09190000       1.59280000      -0.01980000
C        0.12670000       0.08630000       0.04910000
N        0.66210000      -0.41850000      -1.22960000
C        2.04840000      -0.10100000      -1.56100000
C        1.65660000      -1.50340000      -1.23940000
C        2.17080000      -2.15510000       0.04590000
C        1.29730000      -1.82100000       1.27410000
C        0.93940000      -0.34670000       1.27780000
O        1.25130000       0.41360000       2.16510000
H        0.86090000       2.12290000      -0.10320000
H       -0.70720000       1.83950000      -0.88850000
H       -0.58740000       1.94720000       0.88630000
H       -0.85030000      -0.40890000       0.16960000
H        2.22840000       0.21620000      -2.58490000
H        2.65720000       0.41380000      -0.81720000
H        1.50910000      -2.19020000      -2.07000000
H        2.20920000      -3.24040000      -0.08430000
H        3.19910000      -1.83120000       0.23970000
H        0.36240000      -2.39310000       1.21590000
H        1.80300000      -2.07640000       2.20750000
