23
Properties=species:S:1:pos:R:3 gdb_84125=T pbc="F F F"
C       -0.20200000       1.58260000       0.01270000
C        0.04120000       0.07090000       0.01220000
C        0.84480000      -0.45650000      -1.15270000
C        1.64320000      -1.47180000      -0.81440000
C        2.53430000      -2.27150000      -1.71050000
C        1.50330000      -1.77890000       0.66120000
C        0.79850000      -0.51810000       1.24350000
C        1.83990000       0.44100000       1.82940000
O       -0.18410000      -0.82900000       2.23000000
H        0.73170000       2.15060000      -0.04720000
H       -0.81550000       1.86720000      -0.84860000
H       -0.73720000       1.89170000       0.91610000
H       -0.94540000      -0.41720000       0.01710000
H        0.73460000      -0.06400000      -2.15930000
H        2.49920000      -1.90970000      -2.74200000
H        3.57740000      -2.23540000      -1.37050000
H        2.24720000      -3.33120000      -1.71260000
H        0.86380000      -2.65840000       0.82020000
H        2.46380000      -1.99060000       1.14950000
H        2.58170000       0.72700000       1.07730000
H        1.37070000       1.34660000       2.22130000
H        2.37700000      -0.04770000       2.65190000
H        0.27460000      -1.07630000       3.03980000
