20
Properties=species:S:1:pos:R:3 gdb_7697=T pbc="F F F"
C       -0.11590000       1.53000000      -0.01070000
C        0.04700000       0.01130000       0.01280000
O       -1.24320000      -0.60310000      -0.00870000
C        0.99980000      -0.56180000      -1.10090000
C        1.99890000      -1.32700000      -0.21040000
C        1.06100000      -2.01230000       0.82540000
C        0.78970000      -0.53850000       1.24960000
C        2.28530000      -0.27960000       0.90300000
H        0.84150000       2.05000000       0.07860000
H       -0.57420000       1.85310000      -0.95410000
H       -0.76580000       1.85170000       0.80900000
H       -1.71540000      -0.26950000      -0.77860000
H        0.44540000      -1.21750000      -1.77860000
H        1.48290000       0.22310000      -1.69220000
H        2.80130000      -1.86990000      -0.71160000
H        0.21560000      -2.59690000       0.46040000
H        1.61610000      -2.56600000       1.58630000
H        0.35980000      -0.27990000       2.21790000
H        2.95510000      -0.65970000       1.67780000
H        2.59750000       0.72570000       0.60530000
