14
Properties=species:S:1:pos:R:3 gdb_18853=T pbc="F F F"
O       -0.00070000       0.03220000      -0.18740000
C       -0.03070000       1.21180000       0.02350000
C       -1.13040000       2.22600000       0.06500000
C       -0.73250000       3.37640000       0.99700000
C        0.30740000       3.09070000       2.07690000
O        1.47460000       2.65570000       1.37310000
C        1.06320000       2.32920000       0.05630000
C       -0.07570000       3.30770000      -0.32840000
H       -2.15040000       2.10290000      -0.27750000
H       -1.51110000       4.10660000       1.18340000
H        0.56050000       3.99360000       2.64390000
H       -0.02760000       2.31660000       2.77930000
H        1.93620000       2.20000000      -0.58100000
H       -0.11740000       4.01820000      -1.14020000
