11
Properties=species:S:1:pos:R:3 gdb_132942=T pbc="F F F"
F        0.02050000       0.00650000      -0.20910000
C        0.00090000       1.31470000      -0.02050000
C       -1.14100000       1.99470000       0.07150000
O       -1.17290000       3.34690000       0.26650000
C       -0.02110000       4.06950000       0.37650000
O       -0.04490000       5.24220000       0.54700000
O        1.14820000       3.38110000       0.28400000
C        1.27610000       2.00260000       0.08570000
N        2.40030000       1.44550000       0.01150000
H       -2.12730000       1.55850000       0.00340000
H        3.15940000       2.11980000       0.11300000
