22
Properties=species:S:1:pos:R:3 gdb_76740=T pbc="F F F"
C       -0.20880000       1.54280000       0.01680000
C       -0.03520000       0.03250000      -0.03440000
C        1.07290000      -0.57120000      -0.99650000
O        1.93190000       0.31500000      -1.66010000
C        1.66910000      -1.30810000       0.21640000
C        2.37520000      -2.62780000       0.23410000
N        2.07730000      -0.18010000       1.10330000
C        0.66970000      -0.67980000       1.13140000
C        0.04510000      -1.17510000       2.39940000
H        0.72050000       2.03340000       0.31680000
H       -0.49730000       1.93450000      -0.96350000
H       -0.98660000       1.82560000       0.73470000
H       -0.99350000      -0.45770000      -0.24140000
H        0.64960000      -1.23750000      -1.75260000
H        2.43490000       0.74890000      -0.95640000
H        3.35960000      -2.55320000      -0.24240000
H        2.52450000      -2.98930000       1.25800000
H        1.80060000      -3.38640000      -0.30830000
H        2.56250000      -0.58420000       1.90400000
H       -0.20480000      -0.34490000       3.07050000
H       -0.88050000      -1.72230000       2.19020000
H        0.71830000      -1.84910000       2.94160000
