16
Properties=species:S:1:pos:R:3 gdb_98717=T pbc="F F F"
C       -0.04770000       1.48330000       0.64230000
O        0.01150000       0.20800000       1.29280000
C        0.75370000      -0.71460000       0.67220000
O        1.37210000      -0.52730000      -0.34800000
C        0.73330000      -2.04510000       1.36190000
N        0.31880000      -2.13310000       2.76200000
C       -0.54560000      -2.75200000       1.74650000
C       -1.85620000      -2.20600000       1.52900000
C       -2.97330000      -1.81390000       1.32400000
H       -0.47830000       1.38530000      -0.35740000
H       -0.68120000       2.10620000       1.27320000
H        0.95180000       1.91620000       0.55390000
H        1.53020000      -2.68710000       0.99760000
H        0.86030000      -2.84830000       3.24090000
H       -0.49630000      -3.83460000       1.64130000
H       -3.95580000      -1.44970000       1.15140000
