18
Properties=species:S:1:pos:R:3 gdb_91086=T pbc="F F F"
O       -0.17400000       1.39220000      -0.21820000
C        0.03490000       0.01310000      -0.06790000
C        0.30400000      -0.58710000       1.37630000
C       -0.69110000      -1.75230000       1.02790000
N       -1.86410000      -2.20630000       1.80020000
C       -2.66790000      -1.17210000       2.45190000
C       -3.04690000      -1.61740000       1.07940000
C       -2.53480000      -0.70910000       0.00190000
C       -1.20830000      -0.83220000      -0.04600000
H        0.68020000       1.81860000      -0.33860000
H        0.79060000      -0.36080000      -0.77400000
H        1.33170000      -0.87310000       1.61240000
H       -0.08650000       0.09410000       2.13430000
H       -0.14350000      -2.63610000       0.68470000
H       -3.22740000      -1.53310000       3.31090000
H       -2.27160000      -0.16460000       2.55550000
H       -3.90720000      -2.26380000       0.93060000
H       -3.14910000       0.03590000      -0.48720000
