18
Properties=species:S:1:pos:R:3 gdb_30064=T pbc="F F F"
C       -0.54910000       1.45260000      -0.14150000
N       -0.16470000       0.05690000      -0.06030000
C       -0.06430000      -0.82200000      -1.09740000
N        0.29650000      -2.02310000      -0.70560000
C        0.43400000      -1.92270000       0.65610000
C        0.15910000      -0.64670000       1.09100000
C        0.17100000      -0.01130000       2.41910000
C        0.99730000      -0.57740000       3.51170000
N        1.38470000       0.70690000       2.90580000
H        0.17580000       2.08250000       0.38080000
H       -0.58270000       1.74900000      -1.19140000
H       -1.53740000       1.61960000       0.29980000
H       -0.26650000      -0.52020000      -2.11530000
H        0.71390000      -2.77430000       1.25800000
H       -0.74270000       0.50740000       2.70430000
H        0.64310000      -0.51360000       4.53610000
H        1.59790000      -1.45510000       3.29260000
H        2.14140000       0.53510000       2.24610000
