16
Properties=species:S:1:pos:R:3 gdb_4467=T pbc="F F F"
C        0.06750000       1.51500000       0.02510000
C        0.05740000       0.01750000       0.01640000
C       -0.03220000      -0.78720000      -1.09600000
N       -0.13630000      -0.54170000      -2.48550000
N       -0.00670000      -2.10830000      -0.66120000
C        0.09580000      -2.13530000       0.69430000
O        0.13500000      -3.34990000       1.30420000
C        0.13910000      -0.84470000       1.16260000
H        0.99070000       1.91740000       0.46000000
H       -0.01580000       1.91050000      -0.99220000
H       -0.76470000       1.92790000       0.60820000
H       -0.97350000      -0.02070000      -2.72370000
H        0.65770000      -0.02350000      -2.84610000
H       -0.05700000      -2.90940000      -1.26640000
H        0.20450000      -3.20380000       2.25220000
H        0.21930000      -0.54300000       2.19650000
