16
Properties=species:S:1:pos:R:3 gdb_1344=T pbc="F F F"
C       -0.13870000       1.59820000      -0.03180000
C        0.02470000       0.08150000      -0.03130000
C       -1.31280000      -0.64840000       0.04180000
C        0.94770000      -0.43820000      -1.17730000
N        2.12040000      -1.02860000      -0.51350000
C        1.91580000      -0.88120000       0.72850000
O        0.79060000      -0.27940000       1.16970000
H        0.83860000       2.08940000      -0.04150000
H       -0.69220000       1.91760000      -0.92100000
H       -0.68640000       1.93320000       0.85370000
H       -1.91520000      -0.42150000      -0.84400000
H       -1.15780000      -1.73030000       0.08310000
H       -1.87630000      -0.34470000       0.92870000
H        0.44970000      -1.19450000      -1.79440000
H        1.26620000       0.36940000      -1.84590000
H        2.58840000      -1.20660000       1.51540000
