21
Properties=species:S:1:pos:R:3 gdb_113982=T pbc="F F F"
C        0.10440000       1.12420000      -0.52790000
O       -0.18920000       0.20310000       0.50280000
C       -1.38510000      -0.47850000       0.29900000
C       -1.40150000      -1.68920000      -0.60480000
C       -1.50640000      -1.84350000       0.90480000
C       -0.36400000      -2.44930000       1.69100000
C       -0.37280000      -3.99230000       1.63060000
C        0.71180000      -4.59700000       2.39380000
C        1.61620000      -5.06890000       3.02990000
H        1.05290000       1.60200000      -0.27220000
H        0.20130000       0.62560000      -1.50300000
H       -0.67330000       1.89860000      -0.61160000
H       -2.26760000       0.16410000       0.30240000
H       -2.27120000      -1.88000000      -1.22400000
H       -0.45250000      -1.96370000      -1.05510000
H       -2.49530000      -2.09110000       1.28430000
H        0.58840000      -2.07300000       1.30960000
H       -0.42290000      -2.13310000       2.73870000
H       -1.33490000      -4.36830000       2.00350000
H       -0.30990000      -4.31290000       0.58280000
H        2.41090000      -5.49620000       3.58910000
