15
Properties=species:S:1:pos:R:3 gdb_28363=T pbc="F F F"
C       -0.02570000       1.51570000       0.00590000
C       -0.00490000       0.01660000      -0.02630000
C       -0.05110000      -0.72440000      -1.16810000
N       -0.03400000      -2.09660000      -1.23660000
C        0.03250000      -2.70790000      -0.09750000
O        0.05570000      -4.04470000      -0.02420000
N        0.08320000      -2.08710000       1.10190000
C        0.06950000      -0.67900000       1.24880000
O        0.11770000      -0.18290000       2.35840000
H        0.86990000       1.90930000       0.49850000
H       -0.08110000       1.93110000      -1.00360000
H       -0.88060000       1.88330000       0.58370000
H       -0.10690000      -0.22680000      -2.13300000
H        0.01440000      -4.36260000      -0.93730000
H        0.13400000      -2.63160000       1.95310000
