23
Properties=species:S:1:pos:R:3 gdb_79518=T pbc="F F F"
C       -0.15570000       1.56550000      -0.07370000
C        0.03770000       0.04790000      -0.00500000
C        0.91960000      -0.50340000      -1.12930000
C        1.38020000      -1.95150000      -0.76970000
C        2.71830000      -1.69510000      -1.50050000
C        2.42660000      -0.39170000      -0.72040000
C        1.95290000      -1.24820000       0.50140000
C        0.82420000      -0.51900000       1.23610000
C        1.32680000       0.49690000       2.26590000
H        0.79950000       2.10020000      -0.08630000
H       -0.69470000       1.83810000      -0.98760000
H       -0.73700000       1.94110000       0.77440000
H       -0.95390000      -0.41990000      -0.05160000
H        0.63810000      -0.28200000      -2.16230000
H        0.76370000      -2.85320000      -0.79090000
H        3.58010000      -2.28370000      -1.17160000
H        2.67980000      -1.63480000      -2.59240000
H        3.03420000       0.51510000      -0.69130000
H        2.70450000      -1.77140000       1.09860000
H        0.19570000      -1.24850000       1.76240000
H        2.00780000       1.22930000       1.82050000
H        0.50310000       1.04730000       2.73130000
H        1.87410000      -0.01340000       3.06610000
