21
Properties=species:S:1:pos:R:3 gdb_107509=T pbc="F F F"
C        0.17190000       1.52440000      -0.16790000
C       -0.11550000       0.03580000       0.07530000
C        0.64200000      -0.52520000       1.24710000
C        2.06700000      -0.99850000       1.16950000
C        1.00360000      -1.96550000       1.61920000
C        0.66520000      -1.71590000       3.08970000
C        0.27640000      -0.23130000       2.72700000
C        0.96380000       0.85140000       3.40690000
C        1.55410000       1.73670000       3.96920000
H        1.23230000       1.68670000      -0.38580000
H       -0.41170000       1.90580000      -1.01160000
H       -0.07710000       2.12380000       0.71350000
H       -1.19320000      -0.10790000       0.23420000
H        0.13990000      -0.54130000      -0.82260000
H        2.43870000      -1.15280000       0.16090000
H        2.81500000      -0.63490000       1.87020000
H        0.79130000      -2.87710000       1.07310000
H       -0.19660000      -2.28030000       3.45110000
H        1.48880000      -1.82970000       3.80010000
H       -0.80620000      -0.09910000       2.82530000
H        2.06760000       2.52280000       4.46470000
