16
Properties=species:S:1:pos:R:3 gdb_16190=T pbc="F F F"
O        0.10510000      -0.00100000       0.00450000
C        0.02700000       1.20950000       0.01070000
C       -1.19980000       2.04160000       0.03100000
C       -0.87470000       3.34040000       0.03240000
C        0.61650000       3.57830000       0.01340000
C        1.18920000       2.16820000      -0.00050000
C        2.45160000       1.75020000       0.72810000
C        2.43170000       1.75690000      -0.76620000
H       -2.19450000       1.61550000       0.04250000
H       -1.58190000       4.16280000       0.04550000
H        0.90670000       4.16730000      -0.86650000
H        0.93020000       4.15950000       0.89050000
H        3.00640000       2.52600000       1.24490000
H        2.41310000       0.78780000       1.22730000
H        2.37970000       0.79900000      -1.27280000
H        2.97250000       2.53730000      -1.29070000
