11
Properties=species:S:1:pos:R:3 gdb_48233=T pbc="F F F"
O       -0.08030000      -0.04930000       0.00190000
C       -0.04200000       1.14850000       0.00830000
N        1.18570000       1.87760000       0.00070000
C        2.40410000       1.14050000      -0.01480000
O        3.48870000       1.64600000      -0.02220000
C        1.10950000       3.28370000       0.00910000
O        0.05750000       3.87260000       0.02170000
C        2.36210000       4.03980000       0.00120000
N        3.22700000       4.80610000      -0.00290000
H       -0.91210000       1.81570000       0.02000000
H        2.19950000       0.06240000      -0.01850000
