17
Properties=species:S:1:pos:R:3 gdb_32106=T pbc="F F F"
C        0.13030000       1.53140000       0.14930000
C       -0.07270000       0.02170000      -0.05890000
C        0.71010000      -0.49810000      -1.23730000
N        0.33320000      -0.05040000      -2.45360000
C        1.03130000      -0.49860000      -3.48690000
N        2.06630000      -1.34420000      -3.46200000
C        2.42430000      -1.77530000      -2.25680000
O        3.45810000      -2.62690000      -2.17970000
C        1.77090000      -1.37880000      -1.08780000
H        1.17540000       1.76010000       0.38130000
H       -0.14460000       2.07720000      -0.75660000
H       -0.48830000       1.89320000       0.97560000
H        0.20990000      -0.52910000       0.84390000
H       -1.13470000      -0.17450000      -0.24530000
H        0.73190000      -0.14330000      -4.47060000
H        3.75960000      -2.76780000      -3.08910000
H        2.08770000      -1.75070000      -0.12170000
