16
Properties=species:S:1:pos:R:3 gdb_49849=T pbc="F F F"
N       -0.03170000       1.19900000       0.34820000
C        0.00100000      -0.01260000       0.00370000
O        1.13170000      -0.67070000      -0.43090000
C        0.80880000      -1.91460000      -1.04430000
C        1.73400000      -3.01760000      -0.55610000
O        2.44550000      -2.94330000       0.40760000
C       -0.65030000      -2.21360000      -0.68220000
C       -0.95130000      -2.22720000       0.78840000
C       -1.14830000      -0.95440000      -0.01030000
H        0.88630000       1.63140000       0.23360000
H        0.91730000      -1.82530000      -2.13540000
H        1.66320000      -3.94520000      -1.17010000
H       -1.25540000      -2.77630000      -1.38070000
H       -1.85140000      -2.73960000       1.10660000
H       -0.12390000      -2.27480000       1.48880000
H       -2.13990000      -0.54940000      -0.15450000
