20
Properties=species:S:1:pos:R:3 gdb_59158=T pbc="F F F"
C        0.60190000       0.29290000      -1.33540000
C        0.09840000       0.11220000       0.09710000
C        0.11400000       1.42180000       0.88560000
N       -1.29230000      -0.36650000       0.03090000
C       -1.66720000      -1.73180000      -0.18860000
C       -0.70450000      -2.73550000       0.47420000
C       -1.03990000      -2.03190000       1.81900000
O       -0.80540000      -2.29830000       2.96220000
C       -1.96080000      -1.03230000       1.14350000
H        1.62990000       0.66730000      -1.33680000
H        0.58540000      -0.65520000      -1.88270000
H       -0.03030000       1.00550000      -1.87420000
H        0.75910000      -0.60270000       0.61020000
H       -0.52290000       2.16780000       0.40020000
H       -0.25290000       1.26960000       1.90530000
H        1.13160000       1.81860000       0.94820000
H       -2.38460000      -1.96500000      -0.96710000
H       -1.08870000      -3.75980000       0.49690000
H        0.33250000      -2.75130000       0.13090000
H       -2.87060000      -0.60200000       1.54790000
