16
Properties=species:S:1:pos:R:3 gdb_24222=T pbc="F F F"
C        0.04200000       1.46920000      -0.00210000
C        1.28300000       0.65690000       0.05950000
C        1.94750000       0.34950000       1.42370000
C        0.81310000      -0.38870000       2.05400000
C       -0.24830000      -0.56060000       1.23520000
C       -1.23580000      -1.27750000       1.97770000
C       -0.66520000      -1.47480000       3.20340000
O        0.59470000      -0.93550000       3.27200000
N       -0.06260000      -0.00920000      -0.06890000
H       -0.30850000       1.94760000       0.90880000
H       -0.20790000       1.98670000      -0.92400000
H        1.90780000       0.59740000      -0.82500000
H        2.84750000      -0.26340000       1.28740000
H        2.25150000       1.25650000       1.95970000
H       -2.21640000      -1.60400000       1.67020000
H       -1.00430000      -1.96510000       4.10070000
