23
Properties=species:S:1:pos:R:3 gdb_59996=T pbc="F F F"
C       -0.52940000       1.66700000      -0.61960000
C        0.26590000       0.49530000      -0.05720000
C       -0.54820000      -0.33720000       0.93580000
O        0.65630000      -0.31230000      -1.17740000
C        1.83340000      -1.07870000      -1.01230000
C        1.66650000      -2.38570000      -1.78640000
C        3.05910000      -0.31790000      -1.50230000
C        2.96520000       0.71620000      -2.53710000
O        3.15180000       1.06330000      -1.15810000
H        0.09690000       2.26720000      -1.28430000
H       -1.39210000       1.30380000      -1.18770000
H       -0.89390000       2.30950000       0.18770000
H        1.16720000       0.88330000       0.43240000
H       -1.45330000      -0.72280000       0.45530000
H        0.02740000      -1.18950000       1.31090000
H       -0.84390000       0.26910000       1.79840000
H        1.98660000      -1.31280000       0.05280000
H        2.56850000      -3.00240000      -1.71990000
H        0.82500000      -2.95530000      -1.38470000
H        1.46660000      -2.17610000      -2.84140000
H        3.99870000      -0.86610000      -1.40380000
H        3.81860000       0.91460000      -3.18360000
H        1.98680000       0.96080000      -2.94180000
