18
Properties=species:S:1:pos:R:3 gdb_71043=T pbc="F F F"
C       -0.14430000       1.43200000      -0.07660000
C        0.04040000      -0.05720000       0.11410000
C       -1.21840000      -0.92650000       0.54960000
C       -0.10080000      -1.83520000       1.07290000
C        0.34830000      -2.70320000       0.12550000
C        1.46610000      -2.06210000      -0.55790000
C        1.99500000      -0.92060000       0.21670000
C        0.90290000      -0.67530000       1.24320000
N        1.07060000      -0.57510000      -0.91850000
H        0.81940000       1.94850000      -0.09380000
H       -0.65090000       1.63330000      -1.02620000
H       -0.75020000       1.84650000       0.73520000
H       -1.79220000      -0.34840000       1.28440000
H       -1.88330000      -1.34320000      -0.20880000
H       -0.31750000      -3.37090000      -0.41330000
H        2.03970000      -2.50570000      -1.36280000
H        3.03380000      -0.61360000       0.23740000
H        1.04590000      -0.20460000       2.21310000
