14
Properties=species:S:1:pos:R:3 gdb_16326=T pbc="F F F"
O        0.13910000       1.45050000       0.36870000
C        0.09140000       0.09590000      -0.04320000
C       -1.31170000      -0.44220000      -0.01810000
C       -2.03450000      -1.02910000       1.20600000
C       -1.95600000      -1.80890000      -0.05250000
O       -2.99410000      -1.34240000      -0.96520000
C       -2.37510000      -0.10120000      -1.02930000
O       -2.64430000       0.81620000      -1.73680000
H       -0.38190000       1.96180000      -0.26110000
H        0.51820000      -0.03180000      -1.04940000
H        0.72260000      -0.46330000       0.65480000
H       -1.35780000      -1.32320000       2.00380000
H       -2.99150000      -0.63320000       1.53020000
H       -1.55160000      -2.79500000      -0.22910000
