20
Properties=species:S:1:pos:R:3 gdb_115158=T pbc="F F F"
C       -0.12970000       1.69710000       0.12660000
C        0.00140000       0.17480000       0.25140000
C       -1.29990000      -0.56750000      -0.05780000
C       -1.81070000      -0.41600000      -1.50400000
O       -2.63600000      -1.56560000      -1.75900000
C       -2.38500000      -2.55340000      -0.85510000
O       -2.93040000      -3.61890000      -0.90020000
C       -1.27960000      -2.09650000       0.10980000
N        0.01170000      -2.71350000      -0.22420000
H        0.81040000       2.19250000       0.38610000
H       -0.38920000       2.00170000      -0.89330000
H       -0.90610000       2.08590000       0.79510000
H        0.79670000      -0.18630000      -0.40960000
H        0.31980000      -0.08700000       1.26650000
H       -2.08800000      -0.18750000       0.60510000
H       -2.42280000       0.47360000      -1.66430000
H       -0.98840000      -0.40490000      -2.23220000
H       -1.53650000      -2.40500000       1.12540000
H       -0.08500000      -3.72300000      -0.14800000
H        0.25110000      -2.53250000      -1.19640000
