16
Properties=species:S:1:pos:R:3 gdb_82352=T pbc="F F F"
O        0.24830000       1.14060000       0.60890000
C       -0.03850000      -0.16390000       0.16350000
C       -1.49280000      -0.29450000      -0.23010000
C       -1.92400000       0.48910000      -1.46010000
C       -1.50900000      -0.94770000      -1.57690000
O       -0.19450000      -1.24770000      -2.00300000
C        0.72610000      -0.57980000      -1.15810000
C        1.33470000       0.58430000      -1.83140000
N        1.85220000       1.46860000      -2.36550000
H        1.17420000       1.19400000       0.86940000
H        0.19950000      -0.90390000       0.94010000
H       -2.21140000      -0.53390000       0.54320000
H       -2.98220000       0.70670000      -1.55280000
H       -1.26940000       1.26580000      -1.83790000
H       -2.20440000      -1.72320000      -1.87200000
H        1.53840000      -1.28260000      -0.93950000
