14
Properties=species:S:1:pos:R:3 gdb_80118=T pbc="F F F"
O       -0.13100000       1.40610000      -0.10730000
C       -0.07520000       0.02780000      -0.00790000
C       -0.44540000      -0.68780000       1.26560000
N       -1.19220000       0.09670000       2.21480000
C       -2.28000000       0.41510000       1.62900000
O       -2.52200000      -0.05250000       0.38660000
C       -1.36090000      -0.79290000       0.01130000
C       -1.59030000      -1.92660000      -0.81410000
C       -1.74200000      -2.89010000      -1.51770000
H       -0.11560000       1.77130000       0.78640000
H        0.72190000      -0.42940000      -0.58820000
H        0.16180000      -1.49770000       1.65130000
H       -3.06640000       1.03470000       2.04220000
H       -1.88640000      -3.73900000      -2.13930000
