15
Properties=species:S:1:pos:R:3 gdb_11873=T pbc="F F F"
N       -0.04080000       1.21530000      -0.38320000
C       -0.03010000       0.00350000      -0.03750000
C       -1.24840000      -0.88220000       0.12600000
C       -0.65220000      -2.27350000       0.19750000
C       -1.38710000      -3.52290000       0.38190000
O       -0.87180000      -3.15630000      -0.90360000
C        0.78860000      -2.05800000       0.63420000
O        1.10330000      -0.71170000       0.25420000
H        0.90900000       1.59030000      -0.40960000
H       -1.76750000      -0.61830000       1.05410000
H       -1.94760000      -0.76600000      -0.70230000
H       -0.90070000      -4.37590000       0.85480000
H       -2.47190000      -3.50060000       0.47730000
H        0.91140000      -2.16080000       1.71980000
H        1.47090000      -2.74230000       0.12440000
