18
Properties=species:S:1:pos:R:3 gdb_91179=T pbc="F F F"
C       -0.39440000       1.34930000      -0.11800000
C        0.08930000      -0.07800000      -0.03600000
O       -1.04880000      -0.98500000      -0.17290000
C       -1.05140000      -1.75310000       0.95600000
N       -0.10840000      -1.65080000       1.79440000
C        0.81530000      -0.66460000       1.21830000
C        1.90650000      -1.28260000       0.29500000
C        1.26750000      -0.55660000      -0.93560000
O        0.94050000      -1.29470000      -2.07790000
H        0.44370000       2.03930000       0.02100000
H       -0.84410000       1.55050000      -1.09550000
H       -1.14090000       1.55390000       0.65580000
H       -1.90450000      -2.41770000       1.03720000
H        1.16750000       0.03800000       1.97530000
H        2.93990000      -1.00790000       0.51640000
H        1.83220000      -2.37090000       0.23840000
H        1.87760000       0.28920000      -1.26820000
H        0.14070000      -1.79280000      -1.86710000
