19
Properties=species:S:1:pos:R:3 gdb_108532=T pbc="F F F"
C       -0.17060000       1.53120000       0.01510000
C        0.12850000       0.02610000       0.02540000
C        0.81770000      -0.47250000      -1.22300000
C        2.19410000       0.04040000      -1.63050000
O        2.45070000      -0.70380000      -2.84170000
C        1.29580000      -1.48690000      -2.97040000
C        0.79820000      -2.00000000      -1.59020000
O       -0.59580000      -1.91960000      -2.03470000
C        0.01960000      -0.69750000      -2.55980000
H        0.74520000       2.12960000      -0.02950000
H       -0.78990000       1.80540000      -0.84550000
H       -0.71160000       1.82430000       0.91950000
H        0.74600000      -0.21980000       0.89950000
H       -0.80480000      -0.53800000       0.13010000
H        2.21530000       1.11420000      -1.84930000
H        2.97060000      -0.18040000      -0.88720000
H        1.31650000      -2.12780000      -3.84850000
H        1.10100000      -2.86150000      -0.99430000
H       -0.60670000      -0.00780000      -3.12600000
