13
Properties=species:S:1:pos:R:3 gdb_129753=T pbc="F F F"
N        0.05720000       1.50250000      -0.15230000
C        0.01000000       0.12100000      -0.06800000
C       -1.05930000      -0.73510000      -0.01770000
O       -0.61510000      -2.03140000      -0.02330000
N        0.76810000      -2.02790000      -0.06950000
C        1.12180000      -0.76880000      -0.09710000
O        2.40230000      -0.36080000      -0.13530000
C       -2.43710000      -0.48330000       0.03680000
C       -3.61370000      -0.22640000       0.09000000
H        0.89900000       1.90310000       0.23800000
H       -0.77210000       1.96420000       0.19530000
H        2.96500000      -1.14650000      -0.13400000
H       -4.65330000      -0.01250000       0.12820000
