19
Properties=species:S:1:pos:R:3 gdb_55178=T pbc="F F F"
N       -0.05680000       1.29020000      -0.30530000
C        0.09100000      -0.02180000       0.05550000
O        1.16930000      -0.50210000       0.34340000
C       -1.21430000      -0.80490000       0.06780000
C       -2.14950000      -0.78850000      -1.18050000
C       -2.22140000      -2.32740000      -1.01050000
C       -1.31950000      -3.17810000      -1.92110000
C       -0.18360000      -2.90680000      -0.89800000
N       -1.15890000      -2.29570000       0.07730000
H        0.74190000       1.89650000      -0.20850000
H       -0.96290000       1.70990000      -0.42280000
H       -1.75750000      -0.48010000       0.96640000
H       -3.08900000      -0.24010000      -1.07560000
H       -1.65760000      -0.47030000      -2.10460000
H       -3.20240000      -2.72600000      -0.73680000
H       -1.62440000      -4.22590000      -1.97080000
H       -1.17100000      -2.80860000      -2.93930000
H        0.29890000      -3.79260000      -0.47760000
H        0.59780000      -2.22600000      -1.23660000
