20
Properties=species:S:1:pos:R:3 gdb_92338=T pbc="F F F"
C       -0.02200000       1.44430000      -0.07200000
N        0.11670000       0.00610000       0.04870000
C       -1.11210000      -0.78550000       0.31400000
C       -0.39400000      -1.52060000       1.48050000
O        0.08370000      -2.82820000       1.24090000
C        1.27540000      -2.74160000       0.46630000
C        1.97630000      -1.42070000       0.87030000
O        2.75080000      -0.85940000      -0.16090000
C        0.77770000      -0.53470000       1.26470000
H        0.96860000       1.90600000      -0.13000000
H       -0.56290000       1.68890000      -0.99210000
H       -0.56650000       1.90090000       0.77520000
H       -1.95400000      -0.16970000       0.66100000
H       -1.44410000      -1.40810000      -0.52340000
H       -0.92790000      -1.52800000       2.43110000
H        1.87080000      -3.63510000       0.66790000
H        1.05430000      -2.70690000      -0.61120000
H        2.63930000      -1.57980000       1.72600000
H        2.09390000      -0.51150000      -0.78500000
H        0.99280000       0.20420000       2.04240000
