21
Properties=species:S:1:pos:R:3 gdb_88457=T pbc="F F F"
C        0.12850000       1.62890000       0.16060000
C        0.03800000       0.10690000       0.05360000
C        1.02570000      -0.48050000      -0.99310000
O        1.93680000      -0.91390000       0.03760000
C        0.98300000      -0.59880000       1.06810000
C       -1.36810000      -0.46660000      -0.01610000
C       -2.62840000       0.31560000       0.31210000
C       -2.34450000      -0.11520000      -1.10460000
O       -1.93470000       0.82540000      -2.05750000
H        1.17890000       1.93640000       0.18090000
H       -0.35870000       2.11310000      -0.68800000
H       -0.33890000       1.98720000       1.08440000
H        0.62560000      -1.32600000      -1.56850000
H        1.48740000       0.23550000      -1.68260000
H        1.41480000       0.03590000       1.85180000
H        0.56660000      -1.50410000       1.53260000
H       -1.39980000      -1.51740000       0.26230000
H       -3.42220000      -0.17490000       0.86530000
H       -2.51620000       1.37270000       0.52460000
H       -2.94130000      -0.93080000      -1.51320000
H       -2.69960000       1.35740000      -2.30060000
