25
Properties=species:S:1:pos:R:3 gdb_109772=T pbc="F F F"
C        2.63100000       1.97090000      -0.13090000
O        1.38510000       1.37900000      -0.43980000
C        1.51210000       0.18380000      -1.14950000
C        1.57890000      -1.13210000      -0.39520000
C        1.64560000      -1.16240000       1.11760000
C        0.31820000      -0.72490000      -1.15070000
C       -0.98450000      -0.33560000      -0.46830000
C       -1.76130000       0.66720000      -1.33560000
C       -1.82980000      -1.58110000      -0.16380000
H        3.24810000       1.31960000       0.50350000
H        3.20070000       2.20530000      -1.04310000
H        2.42330000       2.90070000       0.40410000
H        2.09590000       0.28450000      -2.06670000
H        2.16740000      -1.90950000      -0.87700000
H        1.20620000      -0.26510000       1.55860000
H        1.12060000      -2.03270000       1.52620000
H        2.68610000      -1.22060000       1.45590000
H        0.15680000      -1.25630000      -2.08790000
H       -0.75000000       0.16240000       0.47760000
H       -2.00490000       0.23440000      -2.31370000
H       -2.70410000       0.95370000      -0.85710000
H       -1.17080000       1.57220000      -1.50100000
H       -1.29000000      -2.28680000       0.47530000
H       -2.76220000      -1.30990000       0.34290000
H       -2.09660000      -2.10730000      -1.08850000
