12
Properties=species:S:1:pos:R:3 gdb_20524=T pbc="F F F"
C       -0.03400000       1.49620000       0.00930000
C        0.03570000      -0.01060000       0.00290000
O        1.07060000      -0.63920000      -0.00930000
C       -1.25500000      -0.75800000       0.00980000
N       -2.43410000      -0.18830000       0.02180000
O       -3.33720000      -1.19880000       0.02460000
N       -2.71820000      -2.42810000       0.01390000
C       -1.44290000      -2.17100000       0.00480000
H        0.97650000       1.90470000       0.00180000
H       -0.59390000       1.85210000      -0.86160000
H       -0.57790000       1.84510000       0.89320000
H       -0.70170000      -2.95360000      -0.00480000
