18
Properties=species:S:1:pos:R:3 gdb_26163=T pbc="F F F"
C        0.24660000       1.15820000       1.13910000
C       -0.26410000       0.53200000      -0.15520000
O        0.71120000      -0.40140000      -0.69210000
C       -1.59700000      -0.14760000      -0.02280000
C       -2.01760000      -1.15330000      -0.87130000
O       -1.39350000      -1.76070000      -1.90290000
N       -3.27790000      -1.53320000      -0.52350000
C       -3.70040000      -0.77580000       0.55800000
C       -2.68340000       0.08180000       0.88460000
H        1.23690000       1.59360000       0.98130000
H       -0.42920000       1.94840000       1.47970000
H        0.31120000       0.40790000       1.93540000
H       -0.29630000       1.31100000      -0.92890000
H        0.84140000      -1.07740000      -0.01470000
H       -0.47740000      -1.43060000      -1.86520000
H       -3.78970000      -2.27000000      -0.97660000
H       -4.67720000      -0.92260000       0.98710000
H       -2.70830000       0.80680000       1.68400000
