21
Properties=species:S:1:pos:R:3 gdb_118691=T pbc="F F F"
C        0.07780000       1.49470000      -0.36050000
C       -0.18760000       0.00000000      -0.36830000
O        0.92750000      -0.63950000      -1.00180000
C        0.81770000      -2.02510000      -1.16450000
C        1.11470000      -2.86000000       0.05750000
C       -0.15340000      -2.53870000      -2.22950000
O       -0.96090000      -1.64480000      -2.92430000
C        1.33400000      -2.45860000      -2.52140000
O        1.68720000      -1.44060000      -3.41450000
H        1.00760000       1.72120000       0.16940000
H        0.16130000       1.87810000      -1.38190000
H       -0.74200000       2.02090000       0.13740000
H       -0.29100000      -0.37450000       0.65990000
H       -1.10260000      -0.24030000      -0.91890000
H        0.37310000      -2.69720000       0.84710000
H        1.09970000      -3.92540000      -0.19210000
H        2.10470000      -2.61770000       0.45800000
H       -0.61950000      -3.50730000      -2.06540000
H       -0.38120000      -1.24360000      -3.59120000
H        1.94340000      -3.35290000      -2.61610000
H        1.78060000      -0.64190000      -2.87250000
