19
Properties=species:S:1:pos:R:3 gdb_22930=T pbc="F F F"
C       -0.11920000       1.50650000       0.01260000
N        0.11660000       0.07030000       0.09880000
C        1.40110000      -0.53750000      -0.14810000
C        2.58250000       0.32010000       0.36230000
C        1.91050000       0.27190000       1.72900000
N        2.21530000       0.60900000       2.91140000
O        3.42920000       1.32360000       2.93870000
C        0.76060000      -0.56740000       1.24210000
C        0.04390000      -1.62920000       2.01980000
H        0.68350000       2.13720000       0.41660000
H       -0.27440000       1.77150000      -1.03790000
H       -1.03790000       1.73860000       0.55920000
H        1.47040000      -1.33660000      -0.87850000
H        3.53680000      -0.21460000       0.37450000
H        2.73470000       1.29780000      -0.10270000
H        3.54010000       1.49670000       3.87970000
H       -0.60110000      -1.18150000       2.78380000
H       -0.58280000      -2.22410000       1.35120000
H        0.75410000      -2.28710000       2.52980000
