19
Properties=species:S:1:pos:R:3 gdb_63884=T pbc="F F F"
C        0.01270000       1.49250000       0.00190000
C        0.00200000      -0.03500000       0.07510000
C       -1.41500000      -0.57060000      -0.11050000
O        0.86190000      -0.57010000      -0.99620000
C        1.91240000      -1.23450000      -0.28530000
C        1.15590000      -2.02930000       0.81610000
C        0.76260000      -0.59230000       1.30890000
C        2.21060000      -0.25120000       0.87290000
O        3.14270000       0.34090000       1.32310000
H        1.02830000       1.88870000       0.07880000
H       -0.41150000       1.82370000      -0.95040000
H       -0.58590000       1.92340000       0.81130000
H       -1.77440000      -0.30830000      -1.11040000
H       -1.46550000      -1.65680000      -0.01210000
H       -2.09290000      -0.12480000       0.62450000
H        2.64650000      -1.65310000      -0.96880000
H        0.35430000      -2.67640000       0.46070000
H        1.81180000      -2.55580000       1.51210000
H        0.36840000      -0.37480000       2.29870000
