20
Properties=species:S:1:pos:R:3 gdb_65726=T pbc="F F F"
C       -0.13710000       1.55110000       0.09290000
C        0.06290000       0.03900000      -0.00700000
C       -1.26030000      -0.66850000      -0.36010000
C       -1.84180000      -0.23300000      -1.68690000
O       -2.97990000       0.12290000      -1.85560000
C        1.26530000      -0.49660000      -0.85130000
N        1.80540000      -1.30360000       0.30000000
C        2.16130000      -0.31280000       1.33060000
C        0.73810000      -0.66660000       1.17870000
H        0.78330000       2.06290000       0.38570000
H       -0.45930000       1.97320000      -0.86590000
H       -0.90800000       1.79370000       0.83280000
H       -1.07890000      -1.75140000      -0.41950000
H       -2.01480000      -0.49780000       0.41500000
H       -1.12740000      -0.26960000      -2.54250000
H        0.98670000      -1.15500000      -1.67690000
H        1.96950000       0.25560000      -1.22290000
H        2.69160000      -0.74930000       2.17160000
H        2.53210000       0.66160000       1.02050000
H        0.20460000      -1.24410000       1.92910000
