19
Properties=species:S:1:pos:R:3 gdb_109824=T pbc="F F F"
C        0.02860000       1.17840000      -0.58620000
O       -0.06860000       0.02550000       0.23890000
C       -1.33170000      -0.57610000       0.17680000
C       -1.42720000      -1.78820000      -0.72290000
O       -0.28200000      -2.14110000      -1.43560000
C       -1.45150000      -1.94890000       0.79060000
C       -0.27770000      -2.58560000       1.52460000
C       -0.57240000      -3.94960000       1.95140000
C       -0.83420000      -5.06740000       2.30650000
H        1.04640000       1.56040000      -0.48220000
H       -0.16740000       0.94230000      -1.64090000
H       -0.68020000       1.95380000      -0.26340000
H       -2.16430000       0.12090000       0.26940000
H       -2.33310000      -1.98540000      -1.28710000
H        0.40290000      -1.50630000      -1.18470000
H       -2.42090000      -2.16620000       1.22860000
H        0.60050000      -2.59420000       0.87110000
H       -0.00770000      -1.97820000       2.39720000
H       -1.05220000      -6.05840000       2.61780000
