16
Properties=species:S:1:pos:R:3 gdb_44393=T pbc="F F F"
O       -0.06090000       0.00950000       0.07840000
C       -0.02280000       1.20650000       0.03260000
N       -1.01070000       2.17420000      -0.04940000
C       -0.10520000       3.31600000       0.06130000
C        0.15410000       3.89180000       1.47770000
C        1.67630000       4.17720000       1.43790000
C        1.64740000       2.62600000       1.44030000
O        0.43820000       2.69740000       2.25930000
C        1.08500000       2.29420000       0.04280000
H       -1.98030000       2.09460000       0.22470000
H       -0.20130000       4.06420000      -0.72740000
H       -0.57910000       4.55950000       1.92990000
H        2.10110000       4.70050000       0.57650000
H        2.04380000       4.58770000       2.37880000
H        2.43260000       1.99990000       1.86010000
H        1.80310000       2.29960000      -0.77550000
