19
Properties=species:S:1:pos:R:3 gdb_120175=T pbc="F F F"
C       -0.06350000       1.56630000       0.02180000
C       -0.08410000       0.03880000      -0.07760000
C        0.85450000      -0.49730000      -1.16680000
C        0.87110000      -2.01810000      -1.23910000
C       -0.31300000      -2.73310000      -1.96020000
O        0.23440000      -2.26540000      -3.26250000
C        1.45710000      -2.68030000      -2.52070000
C        0.62840000      -3.94790000      -2.18010000
O        0.65490000      -5.13250000      -2.20780000
H        0.94110000       1.93350000       0.25920000
H       -0.36870000       2.02790000      -0.92370000
H       -0.74200000       1.92380000       0.80220000
H        0.19390000      -0.39620000       0.89170000
H       -1.10770000      -0.30130000      -0.28070000
H        0.56650000      -0.09470000      -2.14270000
H        1.87640000      -0.14770000      -0.96780000
H        1.18230000      -2.47690000      -0.29300000
H       -1.38720000      -2.65580000      -1.80680000
H        2.41820000      -2.53710000      -3.01050000
