17
Properties=species:S:1:pos:R:3 gdb_113687=T pbc="F F F"
C       -0.55480000       1.56470000      -0.43990000
O       -0.92040000       0.24490000      -0.87260000
C       -1.16080000      -0.62970000       0.11610000
O       -1.08480000      -0.37130000       1.29150000
C       -1.55490000      -1.99540000      -0.37430000
O       -1.93940000      -2.18300000      -1.73070000
C       -0.73890000      -2.82420000      -1.29070000
C        0.53980000      -2.38200000      -1.95950000
O        0.64150000      -2.94710000      -3.25640000
H       -0.41510000       2.14460000      -1.35160000
H       -1.34800000       1.99710000       0.17420000
H        0.36790000       1.53650000       0.14470000
H       -2.16210000      -2.51440000       0.36520000
H       -0.83590000      -3.90540000      -1.17780000
H        0.59290000      -1.28810000      -1.98510000
H        1.39790000      -2.75930000      -1.39270000
H       -0.09570000      -2.60230000      -3.77250000
