11
Properties=species:S:1:pos:R:3 gdb_406=T pbc="F F F"
O       -0.04850000       1.37470000      -0.06980000
C       -0.00190000      -0.01820000      -0.00340000
C       -0.46940000      -0.70930000       1.26710000
C       -1.34300000      -0.70340000       0.04080000
C        1.07230000      -0.62960000      -0.75830000
N        1.95200000      -1.09730000      -1.34590000
H        0.73470000       1.72620000       0.37010000
H        0.01730000      -1.63260000       1.55820000
H       -0.73660000      -0.04290000       2.07900000
H       -2.19210000      -0.03050000       0.02680000
H       -1.46440000      -1.62200000      -0.51970000
