23
Properties=species:S:1:pos:R:3 gdb_58592=T pbc="F F F"
C        0.09750000       1.53800000      -0.07170000
C       -0.00360000       0.01510000       0.07370000
O        0.61020000      -0.41200000       1.28130000
C       -1.44650000      -0.52540000       0.02430000
O       -2.12970000      -0.09060000       1.22110000
C       -2.25000000      -0.13010000      -1.23090000
C       -3.30750000      -1.23570000      -1.35830000
C       -2.49990000      -2.50730000      -1.04830000
C       -1.50300000      -2.07870000       0.05630000
H        1.14110000       1.84310000       0.03690000
H       -0.26530000       1.88330000      -1.04510000
H       -0.47340000       2.05060000       0.71200000
H        0.56350000      -0.45440000      -0.74040000
H       -0.06600000      -0.29260000       1.96220000
H       -2.31260000       0.85140000       1.13210000
H       -2.66690000       0.88020000      -1.15810000
H       -1.58820000      -0.14430000      -2.10690000
H       -4.08350000      -1.08580000      -0.59970000
H       -3.79540000      -1.25780000      -2.33660000
H       -3.12740000      -3.34970000      -0.74550000
H       -1.95560000      -2.82250000      -1.94640000
H       -0.51160000      -2.51370000      -0.08450000
H       -1.84880000      -2.38330000       1.04660000
