18
Properties=species:S:1:pos:R:3 gdb_119299=T pbc="F F F"
C        0.77620000       0.99900000      -0.29880000
O        1.03490000       0.23300000       0.86760000
C        0.01250000      -0.65990000       1.23860000
C        0.42320000      -2.11180000       0.94830000
C        1.58410000      -2.67090000       1.81480000
C        0.51870000      -3.64470000       2.35550000
O       -0.51350000      -3.04090000       1.53260000
C        0.57680000      -2.34140000      -0.49720000
N        0.69450000      -2.52140000      -1.63300000
H       -0.11540000       1.62940000      -0.17120000
H        1.64530000       1.64360000      -0.44800000
H        0.64440000       0.36910000      -1.18680000
H       -0.15030000      -0.58240000       2.32050000
H       -0.93900000      -0.44070000       0.73690000
H        2.40480000      -3.12380000       1.26070000
H        1.97920000      -1.94630000       2.52680000
H        0.66930000      -4.69830000       2.09850000
H        0.27980000      -3.56240000       3.42060000
