13
Properties=species:S:1:pos:R:3 gdb_131262=T pbc="F F F"
O       -0.12160000       1.36240000       0.00540000
C        0.05050000       0.02530000       0.00410000
C        1.13570000      -0.79200000       0.00950000
N        0.68570000      -2.12560000       0.07210000
C       -0.68130000      -2.10320000       0.03270000
N       -1.69690000      -2.93300000       0.01110000
N       -2.81890000      -2.11820000      -0.00650000
C       -2.45360000      -0.85870000       0.00050000
N       -1.07590000      -0.78560000       0.02380000
H        0.73770000       1.79560000      -0.02520000
H        2.18340000      -0.54620000       0.02480000
H        1.23970000      -2.93300000      -0.15080000
H       -3.10300000      -0.00060000      -0.00110000
