17
Properties=species:S:1:pos:R:3 gdb_44058=T pbc="F F F"
O       -0.18020000       0.16800000      -0.53190000
C       -0.03040000       1.26280000      -0.09790000
O       -0.99810000       2.06020000       0.52000000
C       -0.02040000       3.12660000       0.70980000
C        0.73470000       3.14600000       2.06200000
C        1.89840000       2.33230000       1.37580000
C        1.06920000       2.31490000       0.05160000
C        1.21380000       3.39500000      -1.06820000
C        0.04720000       4.21310000      -0.39200000
H        1.01380000       4.13920000       2.42020000
H        0.20610000       2.62030000       2.85880000
H        2.83350000       2.88930000       1.28420000
H        2.12100000       1.35390000       1.80490000
H        2.18050000       3.90270000      -1.04650000
H        1.03110000       3.04570000      -2.08570000
H       -0.86910000       4.28930000      -0.97950000
H        0.32430000       5.20940000      -0.04100000
