18
Properties=species:S:1:pos:R:3 gdb_104106=T pbc="F F F"
C       -0.09910000       1.63590000      -0.00320000
C        0.01780000       0.12320000      -0.08650000
C       -1.35380000      -0.57340000      -0.07400000
O       -2.05750000      -0.32090000       1.11970000
C        0.90870000      -0.38850000      -1.22850000
O        1.63850000      -1.46540000      -0.63590000
C        1.58050000      -1.35200000       0.72300000
N        2.19520000      -2.04870000       1.56850000
O        0.73770000      -0.35260000       1.08000000
H        0.88150000       2.08840000       0.16330000
H       -0.51460000       2.03030000      -0.93620000
H       -0.76770000       1.91440000       0.81360000
H       -1.96800000      -0.18900000      -0.89570000
H       -1.20600000      -1.65270000      -0.24130000
H       -1.48560000      -0.60630000       1.84300000
H        0.33860000      -0.77700000      -2.07660000
H        1.60730000       0.37810000      -1.58240000
H        2.80450000      -2.71370000       1.09820000
