21
Properties=species:S:1:pos:R:3 gdb_40100=T pbc="F F F"
C       -0.51730000       1.32360000       0.31390000
O        0.83670000       1.04550000      -0.06770000
C       -0.05820000      -0.04510000       0.06420000
C        0.14800000      -1.19780000       1.05290000
C       -0.47450000      -2.15380000      -0.00730000
C       -1.97330000      -2.48350000       0.12050000
C       -2.53420000      -2.21800000      -1.28850000
C       -1.81380000      -0.92870000      -1.74780000
C       -0.42340000      -1.00830000      -1.07930000
H       -0.65310000       1.66910000       1.33870000
H       -1.11260000       1.84760000      -0.43320000
H        1.21130000      -1.38390000       1.22790000
H       -0.36050000      -1.12930000       2.01900000
H        0.11490000      -3.04530000      -0.23080000
H       -2.15840000      -3.50270000       0.47200000
H       -2.44930000      -1.80440000       0.83960000
H       -2.26470000      -3.04820000      -1.95310000
H       -3.62470000      -2.12950000      -1.30950000
H       -1.75570000      -0.85050000      -2.83670000
H       -2.36050000      -0.04720000      -1.39420000
H        0.39660000      -1.09260000      -1.79670000
