20
Properties=species:S:1:pos:R:3 gdb_7461=T pbc="F F F"
C        0.20130000       1.58510000      -0.27040000
C        0.11080000       0.13800000      -0.13390000
C        0.03490000      -1.05970000      -0.02000000
C       -0.06170000      -2.50370000       0.12270000
C        0.88790000      -3.21770000      -0.85200000
C        0.06250000      -3.06920000       1.58430000
C       -1.16140000      -3.98330000       1.31770000
C       -1.51070000      -3.11220000       0.08320000
H        0.94230000       1.87040000      -1.02570000
H       -0.75920000       2.01890000      -0.57110000
H        0.49440000       2.05800000       0.67380000
H        1.92570000      -2.92590000      -0.66450000
H        0.81260000      -4.30480000      -0.74200000
H        0.64400000      -2.96100000      -1.88740000
H        1.01340000      -3.54740000       1.83410000
H       -0.15000000      -2.29780000       2.32730000
H       -0.87340000      -5.00190000       1.04500000
H       -1.91320000      -4.04300000       2.10720000
H       -2.26480000      -2.35560000       0.30940000
H       -1.79070000      -3.62420000      -0.84140000
