18
Properties=species:S:1:pos:R:3 gdb_41063=T pbc="F F F"
C       -0.02210000       1.46880000       0.24520000
C        1.48960000       1.59400000      -0.18890000
C        1.24860000       0.26750000      -0.89370000
C        0.05390000      -0.08740000      -0.00130000
C       -0.45680000      -0.81530000      -1.25360000
C        0.72390000      -1.80070000      -1.59470000
C        1.27780000      -0.94790000      -2.67070000
C        0.34250000       0.17870000      -2.17580000
N        1.97940000      -0.96750000      -1.35420000
H       -0.24770000       1.75800000       1.27210000
H       -0.70230000       1.99700000      -0.42570000
H        1.79450000       2.45550000      -0.78860000
H        2.15440000       1.49810000       0.67530000
H        0.20690000      -0.66000000       0.91670000
H       -1.46950000      -1.17160000      -1.44410000
H        0.79690000      -2.86770000      -1.42570000
H        1.76340000      -1.17390000      -3.61270000
H       -0.07740000       1.01500000      -2.72700000
