16
Properties=species:S:1:pos:R:3 gdb_104953=T pbc="F F F"
O        0.19050000       1.26790000       0.02040000
C       -0.06430000      -0.06860000      -0.35460000
C       -1.46180000      -0.53380000       0.03890000
C       -1.63810000      -1.94670000       0.50940000
N       -1.74130000      -0.84680000       1.46200000
C       -2.52720000       0.13180000      -0.66110000
C       -3.36510000       0.72790000      -1.29770000
C       -4.40160000       1.41670000      -2.02070000
O       -4.20260000       2.18270000      -2.93630000
H       -0.40850000       1.83520000      -0.47860000
H        0.07840000      -0.22570000      -1.43400000
H        0.67550000      -0.68050000       0.17340000
H       -2.56930000      -2.46300000       0.29950000
H       -0.75130000      -2.57630000       0.50670000
H       -0.87810000      -0.73740000       1.99120000
H       -5.42730000       1.18930000      -1.66650000
