21
Properties=species:S:1:pos:R:3 gdb_97928=T pbc="F F F"
C       -0.22520000       1.53180000      -0.09490000
C       -0.02060000       0.00650000      -0.04310000
C        0.77290000      -0.49910000      -1.16000000
C        1.43180000      -0.86510000      -2.10110000
C        2.22650000      -1.38950000      -3.21150000
C        2.01290000      -2.88990000      -3.38840000
O        2.32560000      -3.63860000      -2.24830000
C        0.90220000      -3.39020000      -4.27710000
C        2.35930000      -3.54890000      -4.68300000
H        0.73540000       2.05310000      -0.06910000
H       -0.74230000       1.82320000      -1.01310000
H       -0.82250000       1.86530000       0.75880000
H        0.46500000      -0.26430000       0.90330000
H       -0.99810000      -0.49280000      -0.03320000
H        1.97260000      -0.86780000      -4.14190000
H        3.29200000      -1.20410000      -3.02280000
H        1.77580000      -3.29480000      -1.53220000
H        0.38190000      -4.28240000      -3.94860000
H        0.29010000      -2.67190000      -4.81240000
H        2.74170000      -2.93780000      -5.49370000
H        2.79010000      -4.54130000      -4.61820000
