20
Properties=species:S:1:pos:R:3 gdb_113450=T pbc="F F F"
O       -0.03820000       1.21990000      -1.22590000
C       -0.01090000       0.39500000      -0.07410000
C       -1.34150000      -0.28680000       0.14290000
N       -1.66230000      -1.30560000      -0.89020000
C       -1.46170000      -1.71280000       0.50540000
C       -0.40940000      -2.76180000       0.88840000
C       -1.58170000      -3.66200000       1.38320000
O       -1.44040000      -4.40900000       2.56100000
C       -2.51960000      -2.41560000       1.36580000
H       -0.32670000       0.64760000      -1.94730000
H        0.78150000      -0.36550000      -0.14530000
H        0.22820000       1.04910000       0.77140000
H       -2.15270000       0.37270000       0.44870000
H       -2.65630000      -1.28000000      -1.10620000
H        0.22770000      -3.14500000       0.08960000
H        0.21810000      -2.43310000       1.72540000
H       -1.87420000      -4.37970000       0.61240000
H       -1.15240000      -3.81440000       3.26210000
H       -2.60540000      -1.96790000       2.36310000
H       -3.52360000      -2.53730000       0.94910000
