15
Properties=species:S:1:pos:R:3 gdb_25955=T pbc="F F F"
C       -0.27190000       1.41280000      -0.11570000
C        0.16910000      -0.01650000       0.00580000
N        1.05520000      -0.54900000       0.72420000
O       -0.58630000      -0.79670000      -0.85040000
C       -0.34050000      -2.12000000      -0.87990000
N       -1.05620000      -3.05590000      -0.36160000
C       -0.41310000      -4.22000000      -0.77730000
C        0.65840000      -3.89480000      -1.53400000
O        0.71290000      -2.52600000      -1.61550000
H        0.30540000       2.05390000       0.55130000
H       -0.14760000       1.75750000      -1.14670000
H       -1.33480000       1.49790000       0.12940000
H        1.52180000       0.14370000       1.30460000
H       -0.77550000      -5.19600000      -0.49750000
H        1.42820000      -4.43760000      -2.05350000
