14
Properties=species:S:1:pos:R:3 gdb_5023=T pbc="F F F"
C        0.07690000       1.50140000       0.02780000
C       -0.00590000       0.00650000       0.00630000
C       -0.12640000      -0.69280000      -1.12900000
O       -0.20280000      -2.06160000      -1.16250000
C       -0.14920000      -2.68660000       0.03660000
N       -0.03700000      -2.14980000       1.18080000
C        0.04570000      -0.73840000       1.27220000
N        0.16100000      -0.12620000       2.38790000
H        1.00850000       1.82240000       0.50390000
H        0.02480000       1.92220000      -0.98010000
H       -0.73430000       1.91690000       0.63360000
H       -0.17620000      -0.27230000      -2.12500000
H       -0.21680000      -3.76310000      -0.09200000
H        0.17900000      -0.81490000       3.14300000
