17
Properties=species:S:1:pos:R:3 gdb_68256=T pbc="F F F"
C       -0.11540000       1.53630000      -0.02630000
C        0.06340000       0.02110000       0.03550000
C       -1.21490000      -0.60010000      -0.32280000
N       -2.25410000      -1.04790000      -0.56250000
N        1.28300000      -0.60030000      -0.70250000
C        2.12820000      -0.11430000       0.49530000
C        0.88610000      -0.69840000       1.17720000
O        0.65630000      -0.70650000       2.53210000
C        1.05010000      -1.85610000       0.15850000
H       -0.27560000       1.84750000      -1.06250000
H       -0.99780000       1.82270000       0.55220000
H        0.73780000       2.08370000       0.37230000
H        3.05780000      -0.67520000       0.60180000
H        2.31510000       0.95660000       0.52150000
H       -0.14090000      -1.21820000       2.71440000
H        0.17570000      -2.43860000      -0.13400000
H        1.94210000      -2.47770000       0.24730000
