13
Properties=species:S:1:pos:R:3 gdb_540=T pbc="F F F"
O        0.18000000       1.23150000      -0.33840000
C       -0.11420000      -0.10920000       0.03980000
C       -1.61330000      -0.17970000       0.28790000
N       -2.35200000       0.20980000      -0.89860000
C       -3.34630000      -0.53950000      -1.43890000
O       -3.75830000      -1.58980000      -0.99110000
H        1.10040000       1.27820000      -0.61180000
H        0.16230000      -0.81630000      -0.75600000
H        0.42240000      -0.39570000       0.95670000
H       -1.91960000      -1.19610000       0.54320000
H       -1.86760000       0.47800000       1.12930000
H       -2.05630000       1.05390000      -1.36290000
H       -3.75410000      -0.07470000      -2.35880000
