11
Properties=species:S:1:pos:R:3 gdb_130792=T pbc="F F F"
O        0.08850000       0.05580000       0.73710000
C        0.01550000       1.04020000       0.04730000
O       -1.06670000       1.24500000      -0.74140000
N       -1.67230000       2.71400000      -0.90880000
N       -0.98880000       3.49250000      -1.49120000
C        0.36690000       3.22250000      -2.03860000
O        0.54900000       3.41100000      -3.20010000
C        1.36380000       2.89580000      -1.00360000
C        1.17130000       1.97860000      -0.05060000
H        2.30590000       3.42770000      -1.09470000
H        1.95540000       1.76580000       0.66800000
