16
Properties=species:S:1:pos:R:3 gdb_74015=T pbc="F F F"
C       -0.08670000       1.45340000      -0.07000000
C       -0.03440000      -0.01410000       0.18160000
C       -1.01280000      -0.88050000       0.50670000
C       -2.32520000      -1.22040000      -0.16570000
O       -1.67190000      -2.40480000      -0.73010000
C       -0.55340000      -2.27680000       0.20280000
C        0.91160000      -2.09990000      -0.27130000
O        1.73430000      -2.91870000      -0.59190000
N        1.14540000      -0.73430000      -0.08080000
H        0.55720000       2.00350000       0.62750000
H        0.25400000       1.69220000      -1.08450000
H       -1.10610000       1.82350000       0.05780000
H       -3.15040000      -1.51820000       0.49270000
H       -2.69470000      -0.53780000      -0.93810000
H       -0.59350000      -3.06640000       0.96220000
H        2.05600000      -0.32840000      -0.23080000
