13
Properties=species:S:1:pos:R:3 gdb_1068=T pbc="F F F"
C        0.03180000       1.40490000      -0.07720000
N       -0.16220000      -0.01800000       0.11910000
C        0.57400000      -0.64780000       1.09920000
C        1.25140000      -0.14270000       2.16900000
O        1.76550000      -1.21700000       2.87160000
C        1.37660000      -2.29050000       2.16990000
N        0.67220000      -2.03470000       1.11450000
H        1.08000000       1.68070000      -0.27620000
H       -0.58480000       1.74100000      -0.91340000
H       -0.29510000       1.94940000       0.81610000
H       -0.22470000      -0.56950000      -0.72400000
H        1.45120000       0.83430000       2.56690000
H        1.68180000      -3.25620000       2.54170000
