14
Properties=species:S:1:pos:R:3 gdb_62351=T pbc="F F F"
N       -0.17860000       1.43590000       0.02840000
C       -0.08230000       0.01020000       0.02990000
C        1.02750000      -0.59920000      -0.68360000
N        1.93450000      -1.03900000      -1.25210000
C       -0.53500000      -0.79840000       1.23250000
O       -1.55530000      -0.08930000       1.94750000
C       -2.39120000      -0.15860000       0.82620000
N       -3.58140000       0.18060000       0.66980000
C       -1.36450000      -0.84930000      -0.02230000
H        0.65770000       1.86410000       0.41130000
H       -0.32070000       1.79210000      -0.91080000
H        0.05800000      -1.52930000       1.76390000
H       -3.96890000       0.60160000       1.51540000
H       -1.52490000      -1.61260000      -0.76850000
