17
Properties=species:S:1:pos:R:3 gdb_27253=T pbc="F F F"
C        0.07700000       1.50170000       0.04430000
C       -0.06960000       0.02570000       0.03590000
C       -1.10880000      -0.84230000      -0.04000000
O       -2.46430000      -0.76090000      -0.12780000
C       -2.92210000      -2.10360000      -0.43280000
C       -1.78480000      -3.10540000      -0.05030000
C       -0.61090000      -2.17300000      -0.00260000
C        0.73380000      -2.05940000       0.10230000
O        1.08170000      -0.73830000       0.12630000
H        0.71010000       1.85240000      -0.77930000
H       -0.90790000       1.96240000      -0.06320000
H        0.52240000       1.86510000       0.97820000
H       -3.85060000      -2.26780000       0.11790000
H       -3.13480000      -2.15540000      -1.50750000
H       -1.97600000      -3.57110000       0.92330000
H       -1.70310000      -3.90790000      -0.78820000
H        1.55340000      -2.75590000       0.16380000
