19
Properties=species:S:1:pos:R:3 gdb_111422=T pbc="F F F"
C        0.15590000       1.34250000       0.09060000
O       -0.29880000       0.04870000      -0.25070000
C        0.47180000      -0.58160000      -1.24090000
C        1.88400000      -1.08580000      -0.87840000
O        1.74880000      -2.07090000       0.14840000
C        1.49360000      -2.47150000      -1.20110000
C        0.04680000      -2.06720000      -1.53290000
C       -1.06960000      -2.64330000      -0.66480000
O       -2.28480000      -1.93850000      -0.85500000
H        1.17000000       1.31450000       0.51260000
H        0.15680000       2.01210000      -0.78290000
H       -0.52880000       1.73910000       0.84300000
H        0.49910000       0.02360000      -2.15970000
H        2.84270000      -0.58780000      -0.96780000
H        2.09090000      -3.28210000      -1.60150000
H       -0.19230000      -2.19250000      -2.59220000
H       -1.26160000      -3.68410000      -0.94880000
H       -0.75370000      -2.63300000       0.38560000
H       -2.11250000      -1.04220000      -0.54090000
