19
Properties=species:S:1:pos:R:3 gdb_62973=T pbc="F F F"
C       -0.09520000       1.58690000      -0.11070000
C        0.02120000       0.06710000      -0.04810000
C       -1.33670000      -0.57780000       0.23460000
C        0.75120000      -0.63710000      -1.20120000
C        2.18950000      -0.32740000      -1.26020000
N        1.74150000      -1.33690000      -0.27780000
C        1.13590000      -0.56650000       0.87490000
C        2.04320000       0.32950000       1.58000000
N        2.75340000       1.06220000       2.12440000
H        0.86580000       2.07350000      -0.29180000
H       -0.77930000       1.87750000      -0.91530000
H       -0.49450000       1.98500000       0.82820000
H       -2.05870000      -0.30660000      -0.54320000
H       -1.26310000      -1.66960000       0.25940000
H       -1.73700000      -0.23830000       1.19570000
H        0.24440000      -1.18760000      -1.98830000
H        2.76050000      -0.77430000      -2.06780000
H        2.58040000       0.62210000      -0.90550000
H        0.71790000      -1.27660000       1.59230000
