16
Properties=species:S:1:pos:R:3 gdb_42579=T pbc="F F F"
O       -0.02420000       0.03750000       0.11710000
C       -0.00810000       1.23840000       0.02830000
C       -1.19110000       2.15140000      -0.03020000
C       -1.04940000       3.49740000       0.62280000
C        0.41260000       3.92200000       0.85880000
C        1.37620000       2.82180000       1.35190000
C        1.21160000       2.14710000      -0.05720000
C        0.62390000       3.48270000      -0.60890000
N       -0.88950000       3.34720000      -0.85830000
H       -2.18250000       1.72920000      -0.14330000
H       -1.92340000       3.97580000       1.05370000
H        0.52840000       4.95080000       1.19720000
H        2.38920000       3.20750000       1.49280000
H        1.09260000       2.22870000       2.22570000
H        2.07470000       1.67220000      -0.51940000
H        1.15210000       4.05000000      -1.37040000
