16
Properties=species:S:1:pos:R:3 gdb_7811=T pbc="F F F"
O       -0.08850000       1.46550000      -0.02140000
C       -0.02550000       0.05120000       0.05140000
C       -1.43990000      -0.49340000      -0.06150000
C       -1.39990000      -2.01190000       0.02430000
O       -0.50530000      -2.63170000      -0.91660000
C        0.65200000      -2.04480000      -1.30940000
O        1.47600000      -2.70070000      -1.88450000
C        0.80900000      -0.54380000      -1.08550000
H        0.80740000       1.81320000       0.04110000
H        0.39760000      -0.26310000       1.02060000
H       -2.07040000      -0.10170000       0.74260000
H       -1.87520000      -0.16980000      -1.01400000
H       -1.09780000      -2.33010000       1.03070000
H       -2.37910000      -2.44900000      -0.18300000
H        0.49340000      -0.05950000      -2.01900000
H        1.87840000      -0.34670000      -0.97080000
