17
Properties=species:S:1:pos:R:3 gdb_49024=T pbc="F F F"
O       -0.63180000       0.92920000      -0.78910000
C        0.16760000       0.98900000       0.11540000
C        1.37150000       1.86200000       0.08860000
N        1.54980000       2.73320000      -1.08950000
C        2.83700000       2.05620000      -1.43900000
C        2.79070000       1.25140000      -0.11780000
N        3.30940000       1.81730000       1.18380000
C        3.08320000       3.27770000       1.21150000
C        1.92090000       2.40740000       1.43060000
H        0.05840000       0.36400000       1.02870000
H        0.80590000       2.57710000      -1.76340000
H        2.77690000       1.39990000      -2.31460000
H        3.67980000       2.74270000      -1.57130000
H        2.97550000       0.17920000      -0.15890000
H        3.53280000       3.73230000       2.08860000
H        3.13720000       3.87000000       0.30480000
H        1.42440000       2.29610000       2.38990000
