15
Properties=species:S:1:pos:R:3 gdb_44265=T pbc="F F F"
O        0.05190000       0.08430000       0.48230000
C        0.01690000       1.24750000       0.19070000
N       -1.01430000       2.16250000       0.09220000
C       -0.14630000       3.33770000      -0.09530000
C        1.06370000       2.36630000      -0.13350000
N        1.96030000       2.77160000       0.94290000
C        1.17530000       3.43650000       1.98630000
C        0.04190000       4.11810000       1.21320000
O       -0.59860000       5.07060000       1.56780000
H       -1.97200000       2.11430000       0.41450000
H       -0.38670000       3.96520000      -0.95410000
H        1.58970000       2.24110000      -1.08150000
H        2.50350000       1.99080000       1.29270000
H        0.72200000       2.75800000       2.72980000
H        1.76680000       4.17660000       2.53200000
