18
Properties=species:S:1:pos:R:3 gdb_67231=T pbc="F F F"
C       -0.28750000       1.56520000      -0.05500000
C        0.01680000       0.10890000       0.02020000
C        0.65660000      -0.87650000      -0.89140000
C        1.48110000      -1.51020000       0.23710000
C        2.80590000      -0.82070000       0.39720000
O        3.87140000      -1.38010000       0.45520000
C        0.39750000      -0.89690000       1.18640000
C       -0.86230000      -1.66260000       0.75820000
N       -0.81410000      -0.97790000      -0.57190000
H        0.58710000       2.16950000       0.20850000
H       -0.59340000       1.82760000      -1.07230000
H       -1.10350000       1.83710000       0.62360000
H        0.91520000      -0.78890000      -1.93840000
H        1.61920000      -2.59480000       0.25340000
H        2.73520000       0.29070000       0.46460000
H        0.63730000      -0.66850000       2.22360000
H       -0.82360000      -2.75730000       0.72870000
H       -1.76410000      -1.33540000       1.28180000
