12
Properties=species:S:1:pos:R:3 gdb_3953=T pbc="F F F"
O        0.29270000       1.09360000       0.68670000
C        0.02220000       0.06100000      -0.24640000
C       -1.37490000      -0.47420000      -0.12640000
C       -2.20310000      -0.42180000       0.95180000
O       -3.37850000      -1.00790000       0.67910000
N       -3.35420000      -1.48210000      -0.62660000
C       -2.17190000      -1.15940000      -1.08890000
H       -0.30330000       1.82490000       0.49190000
H        0.20870000       0.38570000      -1.28190000
H        0.75550000      -0.72440000      -0.02930000
H       -2.09330000      -0.00910000       1.94180000
H       -1.91820000      -1.42570000      -2.10600000
