14
Properties=species:S:1:pos:R:3 gdb_33303=T pbc="F F F"
N        0.04810000      -3.73780000       0.08020000
C        0.05380000      -2.57620000       0.04320000
C        0.06090000      -1.21360000      -0.00450000
C        0.07730000      -0.00450000      -0.04340000
C        0.05610000       1.40860000      -0.14040000
C       -0.73240000       2.29620000      -1.12550000
C        0.42530000       3.34990000      -1.03440000
C        1.14630000       2.42100000      -0.05070000
O        0.27310000       2.19110000       1.04800000
H       -0.82110000       1.85240000      -2.11820000
H       -1.71580000       2.59970000      -0.76300000
H        0.95650000       3.46760000      -1.98080000
H        0.17110000       4.33090000      -0.62890000
H        2.20740000       2.27960000       0.11940000
