14
Properties=species:S:1:pos:R:3 gdb_80202=T pbc="F F F"
C        0.01950000       1.56200000       0.04950000
C        0.08990000       0.05370000       0.05550000
C        1.31810000      -0.74050000      -0.16270000
O        2.47730000      -0.04010000       0.34390000
C        2.00050000      -0.12930000       1.64660000
O        2.54520000       0.18910000       2.64590000
C        0.69260000      -0.77990000       1.23070000
C       -0.03280000      -1.78320000       1.92680000
N       -0.63170000      -2.59780000       2.48930000
H        0.96460000       2.01250000       0.35780000
H       -0.20910000       1.91400000      -0.96140000
H       -0.77130000       1.91250000       0.71790000
H       -0.80070000      -0.45080000      -0.31530000
H        1.49350000      -1.54680000      -0.86090000
