18
Properties=species:S:1:pos:R:3 gdb_51952=T pbc="F F F"
O       -0.35680000       0.33720000       0.39070000
C        0.14230000       1.38490000       0.07710000
C        1.52120000       1.52170000      -0.55090000
N        1.58090000       2.59110000      -1.52160000
C        2.31280000       3.73180000      -1.30500000
O        2.93330000       3.91950000      -0.27090000
C        2.28940000       4.71880000      -2.42460000
C        2.34460000       6.18840000      -2.04640000
C        3.54870000       5.53840000      -2.64310000
H       -0.37760000       2.35850000       0.23010000
H        2.22900000       1.79230000       0.24330000
H        1.82180000       0.55750000      -0.97340000
H        1.11170000       2.47330000      -2.40440000
H        1.70930000       4.45290000      -3.30240000
H        1.76520000       6.87710000      -2.65030000
H        2.36780000       6.39950000      -0.98390000
H        4.37430000       5.31500000      -1.97810000
H        3.81760000       5.76940000      -3.66720000
