15
Properties=species:S:1:pos:R:3 gdb_45862=T pbc="F F F"
O       -0.04980000       0.16600000       0.93000000
C       -0.01730000       1.27790000       0.45550000
N       -1.15340000       1.93410000       0.01680000
C       -1.13840000       3.18820000      -0.59930000
N       -0.15840000       3.98920000      -0.64030000
C        1.05510000       3.58090000       0.05910000
C        1.24230000       2.08270000       0.21280000
C        2.51910000       1.49050000       0.62380000
O        2.10540000       1.43440000      -0.74070000
H       -2.01270000       1.40340000       0.05470000
H       -2.08470000       3.45760000      -1.06620000
H        1.92460000       3.98570000      -0.46770000
H        1.03840000       4.05160000       1.05380000
H        3.35860000       2.15290000       0.83080000
H        2.50530000       0.54170000       1.15410000
