21
Properties=species:S:1:pos:R:3 gdb_58091=T pbc="F F F"
C        0.04600000       1.60220000      -0.05190000
C       -0.00550000       0.07510000       0.06400000
N        0.71760000      -0.42960000       1.25630000
H        1.71640000      -0.28480000       1.14660000
H        0.43730000       0.09390000       2.08140000
H        0.06890000      -2.01330000       1.13460000
C       -1.45110000      -0.50930000       0.03590000
C       -2.27160000      -0.10690000       1.27870000
N       -2.13280000       0.02470000      -1.14630000
C       -1.44590000      -2.07360000      -0.00530000
O       -0.53690000      -2.70150000       0.74110000
O       -2.26620000      -2.67480000      -0.65480000
H        1.08540000       1.93630000      -0.13890000
H       -0.51290000       1.95090000      -0.92130000
H       -0.38420000       2.08010000       0.83480000
H        0.51840000      -0.35370000      -0.80110000
H       -2.37060000       0.97930000       1.33950000
H       -3.27680000      -0.53130000       1.20190000
H       -1.82870000      -0.48720000       2.20400000
H       -1.58420000      -0.21080000      -1.97230000
H       -2.98550000      -0.52020000      -1.26150000
