17
Properties=species:S:1:pos:R:3 gdb_48880=T pbc="F F F"
O       -0.79330000       1.07720000       0.39550000
C        0.30490000       0.83380000      -0.03520000
C        1.44170000       1.81820000      -0.03960000
C        1.47600000       2.94130000       1.04760000
C        1.85160000       3.92820000      -0.05740000
C        2.89550000       3.31080000      -0.98060000
C        3.67030000       2.09370000      -0.48740000
O        2.67030000       1.12250000      -0.14430000
C        1.45540000       2.93470000      -1.13560000
H        0.56240000      -0.14740000      -0.48940000
H        0.46770000       3.11950000       1.42780000
H        2.17060000       2.77790000       1.87750000
H        1.68410000       4.99830000      -0.04260000
H        3.35040000       3.96470000      -1.71530000
H        4.31240000       1.67050000      -1.26780000
H        4.29340000       2.31530000       0.38890000
H        0.84240000       3.02150000      -2.02180000
