17
Properties=species:S:1:pos:R:3 gdb_84301=T pbc="F F F"
C       -0.00030000       1.59350000      -0.18620000
C        0.00080000       0.06930000       0.01430000
C        0.64620000      -0.64090000      -1.15210000
C        1.76730000      -1.29890000      -0.84160000
C        2.05770000      -1.17770000       0.60230000
O        3.02020000      -1.58340000       1.20110000
C        0.83190000      -0.44130000       1.23580000
C        1.20070000       0.54020000       2.23740000
C        1.51290000       1.35100000       3.06770000
H        1.01930000       1.97740000      -0.28190000
H       -0.55270000       1.85660000      -1.09400000
H       -0.47080000       2.09430000       0.66280000
H       -1.04230000      -0.25640000       0.11260000
H        0.22160000      -0.56890000      -2.14890000
H        2.41680000      -1.84400000      -1.51440000
H        0.26110000      -1.24160000       1.72750000
H        1.79730000       2.06050000       3.80470000
