23
Properties=species:S:1:pos:R:3 gdb_113090=T pbc="F F F"
C       -0.09030000       1.52210000      -0.30260000
C       -0.04910000      -0.00360000      -0.19110000
C       -1.42090000      -0.61260000       0.12280000
O       -2.35740000      -0.29160000      -0.91290000
C       -3.00790000      -1.47020000      -1.40320000
C       -2.89830000      -1.54350000      -2.93090000
C       -3.54950000      -0.34750000      -3.62910000
C       -2.33410000      -2.59830000      -0.66800000
C       -1.44280000      -2.11670000       0.18900000
H        0.89620000       1.92790000      -0.54650000
H       -0.79120000       1.82960000      -1.08300000
H       -0.41630000       1.97800000       0.63920000
H        0.31690000      -0.44450000      -1.12590000
H        0.64950000      -0.30540000       0.60040000
H       -1.78200000      -0.17520000       1.07170000
H       -4.07960000      -1.41700000      -1.13770000
H       -1.83650000      -1.60840000      -3.19670000
H       -3.36950000      -2.47750000      -3.26430000
H       -3.43940000      -0.41530000      -4.71560000
H       -4.62080000      -0.29430000      -3.40380000
H       -3.09100000       0.58670000      -3.29450000
H       -2.57690000      -3.63940000      -0.84150000
H       -0.80830000      -2.68360000       0.85900000
