15
Properties=species:S:1:pos:R:3 gdb_105867=T pbc="F F F"
O        0.62820000       0.48370000       0.92960000
C       -0.02300000       0.26190000      -0.30950000
C       -1.37070000      -0.40770000      -0.16930000
C       -2.08460000      -0.69190000       1.18720000
O       -3.33890000      -0.24240000       1.54340000
C       -1.84700000      -1.80140000       0.24340000
O       -2.90330000      -1.76720000      -0.76100000
C       -2.40870000      -0.54670000      -1.24300000
O       -2.76790000       0.03770000      -2.21070000
H        0.19450000       1.22530000       1.36420000
H       -0.16350000       1.19580000      -0.87200000
H        0.65570000      -0.36640000      -0.89610000
H       -1.37640000      -0.61200000       2.00690000
H       -3.97670000      -0.63840000       0.93460000
H       -1.32060000      -2.73790000       0.37080000
