16
Properties=species:S:1:pos:R:3 gdb_77803=T pbc="F F F"
C       -0.12100000       1.52680000      -0.01120000
N        0.08560000       0.08710000       0.13620000
C        1.33840000      -0.56310000      -0.17000000
C        2.53440000       0.22460000       0.35580000
O        3.59490000       0.50170000      -0.12090000
C        1.94220000       0.33500000       1.78130000
C        0.75190000      -0.49270000       1.27230000
C        0.12160000      -1.63280000       1.97370000
O        0.46400000      -2.01910000       3.06380000
H        0.72550000       2.15250000       0.29720000
H       -0.33340000       1.72980000      -1.06390000
H       -0.99830000       1.80930000       0.57690000
H        1.35110000      -1.37790000      -0.88700000
H        2.56110000      -0.21790000       2.49270000
H        1.72910000       1.32710000       2.18470000
H       -0.69800000      -2.11060000       1.39610000
