20
Properties=species:S:1:pos:R:3 gdb_88623=T pbc="F F F"
C        0.18860000       1.50780000      -0.22730000
C        0.04910000       0.02710000       0.04260000
C        1.22200000      -0.87830000      -0.03750000
N        0.59060000      -0.60330000       1.25940000
C        1.29220000       0.22290000       2.20980000
C        1.91560000      -0.35670000       3.45940000
C        2.65760000      -1.63740000       3.09210000
O        3.40290000      -0.95800000       2.04210000
C        2.78610000       0.28310000       2.38660000
H        1.19790000       1.86860000      -0.01120000
H       -0.02480000       1.71690000      -1.28090000
H       -0.51880000       2.09280000       0.37220000
H       -0.92440000      -0.37970000      -0.22890000
H        1.12050000      -1.89920000      -0.39610000
H        2.19010000      -0.42530000      -0.23110000
H        0.80440000       1.17430000       2.41300000
H        1.65950000      -0.03610000       4.46040000
H        3.34180000      -1.99380000       3.86890000
H        2.05360000      -2.46480000       2.70550000
H        3.40640000       1.17350000       2.36060000
