18
Properties=species:S:1:pos:R:3 gdb_83677=T pbc="F F F"
O        0.31510000       1.13890000       0.52210000
C        0.04740000      -0.16810000       0.10330000
C       -1.46330000      -0.47480000      -0.02800000
C       -2.34550000       0.74210000      -0.41340000
C       -2.17880000       0.39410000      -1.92430000
C       -1.27900000      -0.81080000      -1.55300000
C        0.25140000      -0.51240000      -1.43290000
C        0.82250000       0.53810000      -2.25280000
N        1.28800000       1.39580000      -2.87440000
H        1.24850000       1.33190000       0.38190000
H        0.57450000      -0.90500000       0.72400000
H       -1.86920000      -1.17890000       0.69800000
H       -3.37310000       0.65460000      -0.05530000
H       -1.94490000       1.70570000      -0.09870000
H       -3.11000000       0.08890000      -2.40680000
H       -1.70630000       1.15700000      -2.54780000
H       -1.51900000      -1.77760000      -1.99450000
H        0.85310000      -1.41690000      -1.55600000
