22
Properties=species:S:1:pos:R:3 gdb_5836=T pbc="F F F"
C       -0.12650000       1.57110000       0.07890000
C       -0.01380000       0.03780000      -0.02320000
C       -1.41270000      -0.53710000       0.10790000
O       -1.76660000      -1.30770000       0.96380000
C        0.71980000      -0.48970000      -1.30670000
C        2.18720000      -0.02160000      -1.27850000
C        0.70280000      -2.03130000      -1.28720000
C        0.05860000       0.00860000      -2.60660000
H        0.85170000       2.05080000      -0.00030000
H       -0.76940000       1.98600000      -0.70400000
H       -0.55650000       1.85680000       1.04400000
H        0.54260000      -0.33730000       0.84360000
H       -2.13960000      -0.16800000      -0.65400000
H        2.68670000      -0.33720000      -0.35610000
H        2.73730000      -0.45610000      -2.12020000
H        2.27800000       1.06560000      -1.35800000
H       -0.31410000      -2.43110000      -1.35080000
H        1.27050000      -2.43120000      -2.13380000
H        1.15130000      -2.42090000      -0.36710000
H        0.06610000       1.10030000      -2.67670000
H        0.60450000      -0.37800000      -3.47380000
H       -0.97830000      -0.32940000      -2.69980000
