20
Properties=species:S:1:pos:R:3 gdb_111736=T pbc="F F F"
C       -0.00670000       1.49530000      -0.28370000
C        0.06140000       0.06510000       0.26840000
C       -1.29070000      -0.61770000       0.24090000
N       -1.96970000      -1.12780000      -0.95300000
C       -0.93470000      -1.79430000      -1.83320000
C       -0.51390000      -2.79960000      -0.73590000
C       -1.50790000      -2.09220000       0.17720000
C       -2.50440000      -2.77280000       1.02340000
O       -2.44040000      -3.93720000       1.33860000
H        0.97090000       1.98270000      -0.22680000
H       -0.32880000       1.50070000      -1.32970000
H       -0.71870000       2.10400000       0.28330000
H        0.81110000      -0.51060000      -0.28080000
H        0.40100000       0.08630000       1.31120000
H       -2.02350000      -0.10680000       0.86720000
H       -1.44280000      -2.25580000      -2.68080000
H       -0.17060000      -1.10920000      -2.21090000
H       -0.82130000      -3.82420000      -0.94680000
H        0.53040000      -2.80580000      -0.41400000
H       -3.34490000      -2.12030000       1.35180000
