23
Properties=species:S:1:pos:R:3 gdb_86905=T pbc="F F F"
C        0.16190000       1.60910000       0.23110000
C        0.15120000       0.09140000       0.13620000
C        1.06670000      -0.60860000      -0.90890000
C        1.35020000      -1.72200000       0.13680000
C        2.75550000      -2.30840000       0.22970000
C        2.90480000      -3.29620000       1.36190000
C        4.14530000      -3.43630000       2.13360000
O        3.01740000      -2.75260000       2.68260000
C        0.85970000      -0.74240000       1.24030000
H        1.18370000       1.98720000       0.35170000
H       -0.25960000       2.06980000      -0.66980000
H       -0.42470000       1.95880000       1.08830000
H       -0.87880000      -0.26380000       0.01300000
H        0.63060000      -0.90020000      -1.86840000
H        1.96650000      -0.01260000      -1.10360000
H        0.62370000      -2.53520000       0.01450000
H        3.00740000      -2.81520000      -0.71280000
H        3.48630000      -1.50140000       0.36480000
H        2.24830000      -4.16780000       1.30740000
H        4.39130000      -4.38760000       2.60400000
H        5.00050000      -2.80640000       1.89030000
H        1.69980000      -0.19260000       1.67790000
H        0.25400000      -1.14560000       2.05510000
