17
Properties=species:S:1:pos:R:3 gdb_36384=T pbc="F F F"
C       -1.79460000       1.51300000       0.06730000
C       -1.01960000       2.42320000      -0.05840000
C       -0.05090000       3.50760000      -0.20050000
C        1.38870000       3.00380000      -0.17510000
C        2.48660000       3.82910000       0.40630000
N        2.07140000       2.58390000       1.04710000
C        1.40300000       2.57690000       2.34600000
C        0.89230000       3.86610000       2.84620000
N        0.52880000       4.90020000       3.21480000
H       -2.49330000       0.72000000       0.17150000
H       -0.21280000       4.02010000      -1.15770000
H       -0.21850000       4.25950000       0.57710000
H        1.62290000       2.35380000      -1.01620000
H        3.48200000       3.82270000      -0.02910000
H        2.19890000       4.76760000       0.87710000
H        0.57360000       1.86330000       2.30860000
H        2.11870000       2.20500000       3.08830000
