17
Properties=species:S:1:pos:R:3 gdb_50623=T pbc="F F F"
O       -0.93480000       1.24590000      -0.10010000
C        0.18090000       0.83430000       0.07130000
C        1.44540000       1.67920000      -0.08860000
O        2.49090000       0.76640000      -0.38260000
C        3.78250000       1.14880000       0.03350000
C        4.33430000       2.41180000      -0.56130000
C        3.71030000       3.34790000      -1.29160000
C        2.29550000       3.45880000      -1.63490000
C        1.27630000       2.76890000      -1.11020000
H        0.39580000      -0.21050000       0.38180000
H        1.61640000       2.13050000       0.90880000
H        3.84010000       1.20850000       1.13620000
H        4.42820000       0.31020000      -0.25790000
H        5.39930000       2.53980000      -0.37370000
H        4.32870000       4.16000000      -1.66750000
H        2.05890000       4.22260000      -2.37180000
H        0.25410000       2.96490000      -1.41760000
