21
Properties=species:S:1:pos:R:3 gdb_12005=T pbc="F F F"
C        0.02100000       1.54430000      -0.00610000
C        0.01150000       0.01020000      -0.00900000
C       -1.44010000      -0.50510000      -0.01680000
C        0.81040000      -0.58920000      -1.19950000
C        1.37490000      -1.91950000      -0.65020000
N        1.50720000      -1.79110000       0.81490000
C        2.22460000      -0.57390000       1.22320000
C        0.73970000      -0.58890000       1.19690000
H        1.04280000       1.93590000       0.02210000
H       -0.46830000       1.94190000      -0.90240000
H       -0.51390000       1.94180000       0.86370000
H       -1.98270000      -0.12720000      -0.89000000
H       -1.47740000      -1.59890000      -0.04250000
H       -1.97820000      -0.17610000       0.87910000
H        0.18330000      -0.73930000      -2.08290000
H        1.61650000       0.08880000      -1.49670000
H        0.68100000      -2.74560000      -0.84050000
H        2.33720000      -2.19300000      -1.09470000
H        2.74860000      -0.65610000       2.17110000
H        2.75680000       0.00100000       0.46880000
H        0.19020000      -0.64700000       2.13410000
