19
Properties=species:S:1:pos:R:3 gdb_114569=T pbc="F F F"
C        0.02660000       1.57730000      -0.12860000
C        0.06750000       0.06240000       0.09990000
C       -1.31850000      -0.57100000       0.05520000
C       -2.10220000      -0.69380000      -1.28310000
N       -2.33370000      -2.17470000      -1.09830000
C       -1.00180000      -2.78190000      -1.09070000
C       -1.44680000      -2.09990000       0.15160000
C       -1.73360000      -2.81150000       1.36070000
N       -1.93820000      -3.35600000       2.36120000
H        1.03130000       2.00780000      -0.09330000
H       -0.40550000       1.82210000      -1.10510000
H       -0.57820000       2.07680000       0.63590000
H        0.71570000      -0.40520000      -0.65120000
H        0.52180000      -0.15340000       1.07510000
H       -1.95760000      -0.10850000       0.81280000
H       -3.05500000      -0.16420000      -1.29860000
H       -1.54590000      -0.46400000      -2.19810000
H       -1.02670000      -3.86670000      -1.08610000
H       -0.20720000      -2.34140000      -1.68880000
