19
Properties=species:S:1:pos:R:3 gdb_101937=T pbc="F F F"
N        0.55470000       0.68180000      -0.09790000
C       -0.22980000      -0.06390000       0.71750000
O        0.00920000      -0.26330000       1.89600000
C       -1.47900000      -0.68830000       0.05980000
C       -2.06570000       0.09590000      -1.12140000
O       -1.18570000       0.07480000      -2.23910000
N       -1.12070000      -2.01850000      -0.45570000
C       -0.79340000      -3.04640000       0.53190000
C       -2.08150000      -3.09880000      -0.20860000
H        1.40970000       1.05810000       0.27780000
H        0.34640000       0.74320000      -1.08550000
H       -2.22190000      -0.74720000       0.86900000
H       -3.03990000      -0.34000000      -1.38890000
H       -2.22710000       1.14350000      -0.85130000
H       -0.89480000      -0.84890000      -2.29660000
H        0.02150000      -3.70950000       0.25730000
H       -0.81260000      -2.74780000       1.57570000
H       -2.98800000      -2.85110000       0.34000000
H       -2.22070000      -3.79940000      -1.02640000
