19
Properties=species:S:1:pos:R:3 gdb_41998=T pbc="F F F"
C        0.06100000       1.36650000      -0.19200000
C        1.45120000       1.84910000       0.24970000
N        2.09470000       0.57630000       0.49870000
C        3.42750000       0.45450000       1.07750000
C        3.46320000      -0.71890000       2.06450000
C        2.68510000      -1.91940000       1.50340000
N        1.30700000      -1.58640000       1.15750000
C        1.14720000      -0.40680000       0.72740000
O       -0.08680000       0.07420000       0.40420000
H       -0.75380000       2.00430000       0.15570000
H        0.00010000       1.26970000      -1.28280000
H        1.95710000       2.42450000      -0.53290000
H        1.40630000       2.47320000       1.15720000
H        4.16870000       0.31180000       0.27940000
H        3.68250000       1.39290000       1.58660000
H        4.50240000      -0.98590000       2.28000000
H        2.99810000      -0.41340000       3.00880000
H        3.20850000      -2.31980000       0.62070000
H        2.66960000      -2.72780000       2.24190000
