17
Properties=species:S:1:pos:R:3 gdb_64783=T pbc="F F F"
C        0.03050000       1.55720000      -0.46930000
C       -0.03610000       0.08670000      -0.12900000
C       -1.39250000      -0.44170000       0.34700000
C       -1.91730000       0.26040000       1.50930000
C       -2.35160000       0.84920000       2.47320000
C       -2.84170000       1.50940000       3.55760000
C       -3.27770000       2.09570000       4.51900000
C        0.89140000      -0.86750000      -0.75320000
O        1.08280000      -0.43010000       0.59560000
H        1.04220000       1.82930000      -0.77790000
H       -0.66220000       1.80030000      -1.28250000
H       -0.24360000       2.16310000       0.39930000
H       -2.11260000      -0.36570000      -0.47970000
H       -1.28720000      -1.50780000       0.57900000
H       -3.65920000       2.61010000       5.36570000
H        0.60350000      -1.91200000      -0.86980000
H        1.62750000      -0.50920000      -1.47150000
