20
Properties=species:S:1:pos:R:3 gdb_114211=T pbc="F F F"
C       -0.21100000       1.28250000       0.12830000
O        0.34570000      -0.00150000      -0.03570000
C        0.86440000      -0.54910000       1.14930000
C       -0.22680000      -1.23260000       2.04060000
C        0.08980000      -2.54260000       1.31440000
C       -0.38190000      -3.92670000       1.48570000
N       -0.76790000      -3.14040000       0.28930000
C        1.43620000      -1.97800000       0.83630000
O        1.85420000      -2.29490000      -0.44680000
H        0.53450000       1.99950000       0.50560000
H       -0.55540000       1.61380000      -0.85440000
H       -1.06670000       1.28310000       0.82050000
H        1.53540000       0.16300000       1.64980000
H        0.04390000      -1.25290000       3.10070000
H       -1.24350000      -0.84270000       1.93920000
H        0.28630000      -4.75970000       1.28360000
H       -1.14000000      -4.12430000       2.23990000
H       -1.72200000      -2.80070000       0.38170000
H        2.25000000      -2.21290000       1.53130000
H        1.04550000      -2.39380000      -0.96870000
