19
Properties=species:S:1:pos:R:3 gdb_97840=T pbc="F F F"
C       -0.13670000       1.54470000      -0.31040000
C        0.05690000       0.04510000      -0.16160000
C        1.42160000      -0.53950000      -0.58370000
O        1.69040000      -1.02850000       0.74670000
C        0.42690000      -0.52310000       1.25040000
C        0.56760000       0.40920000       2.35480000
C        0.66710000       1.18630000       3.27170000
C        0.81590000       2.07760000       4.42100000
O        0.37510000       1.50870000       5.64540000
H        0.69950000       2.09750000       0.12760000
H       -0.20960000       1.81660000      -1.36890000
H       -1.05330000       1.87740000       0.18660000
H       -0.79020000      -0.49260000      -0.59420000
H        1.39180000      -1.35200000      -1.31950000
H        2.16530000       0.20270000      -0.90210000
H       -0.21870000      -1.35500000       1.56300000
H        1.86530000       2.40760000       4.48460000
H        0.21120000       2.98010000       4.27740000
H        0.81550000       0.65780000       5.74230000
