20
Properties=species:S:1:pos:R:3 gdb_15667=T pbc="F F F"
C       -0.12460000       1.68910000      -0.22190000
C       -0.27650000       0.16470000      -0.22160000
C        0.76980000      -0.55130000      -1.07820000
C        2.24320000      -0.39060000      -0.61370000
C        2.86580000      -1.71920000      -0.96780000
C        1.95890000      -2.62620000      -1.33190000
C        0.55200000      -2.09220000      -1.20680000
O       -0.13600000      -2.69730000      -0.10740000
H        0.84610000       1.99890000       0.18030000
H       -0.20520000       2.09600000      -1.23650000
H       -0.90010000       2.16300000       0.38800000
H       -0.22390000      -0.21360000       0.80610000
H       -1.27630000      -0.10460000      -0.58260000
H        0.71140000      -0.15190000      -2.09940000
H        2.74550000       0.44970000      -1.10550000
H        2.32070000      -0.19670000       0.46660000
H        3.93560000      -1.89370000      -0.91230000
H        2.16180000      -3.65640000      -1.60270000
H       -0.08060000      -2.32390000      -2.07000000
H        0.48140000      -2.73090000       0.63170000
