19
Properties=species:S:1:pos:R:3 gdb_76592=T pbc="F F F"
C       -0.20450000       1.55290000      -0.00390000
C       -0.00330000       0.05620000      -0.06690000
C        0.70580000      -0.63710000      -1.18970000
C        1.29530000       0.08650000      -2.37850000
C        1.37140000      -0.58380000       0.19730000
C        2.51720000       0.23000000       0.41820000
C        3.50380000       0.90240000       0.62590000
C        4.65810000       1.72430000       0.84730000
O        5.57310000       1.44980000       1.59300000
H        0.66570000       2.10350000      -0.36650000
H       -1.06980000       1.85000000      -0.60620000
H       -0.38850000       1.87260000       1.02670000
H       -0.81610000      -0.51130000       0.37900000
H        0.32490000      -1.62690000      -1.42760000
H        1.75910000       1.03430000      -2.09840000
H        2.06540000      -0.52630000      -2.85770000
H        0.52070000       0.29450000      -3.12440000
H        1.36220000      -1.51020000       0.76350000
H        4.65620000       2.66910000       0.26440000
