17
Properties=species:S:1:pos:R:3 gdb_83072=T pbc="F F F"
C       -0.08090000       1.62170000       0.20480000
C        0.00580000       0.11840000       0.30480000
C        1.17330000      -0.68270000      -0.15560000
N        2.43470000       0.00080000      -0.21890000
C        2.77960000       0.37750000       1.06590000
N        1.93840000       0.09800000       1.99570000
C        0.83870000      -0.58870000       1.38180000
C        0.21860000      -1.69700000       2.14040000
O       -0.66800000      -2.40140000       1.71430000
H        0.85900000       2.10880000       0.47130000
H       -0.33830000       1.92110000      -0.81680000
H       -0.85610000       2.00380000       0.87570000
H       -0.93000000      -0.41660000       0.16350000
H        1.05210000      -1.58760000      -0.73990000
H        3.13970000      -0.28150000      -0.88140000
H        3.71220000       0.90580000       1.23510000
H        0.65250000      -1.84030000       3.15290000
