20
Properties=species:S:1:pos:R:3 gdb_97686=T pbc="F F F"
C        0.26540000       1.36700000       0.12290000
C       -0.07130000      -0.08040000      -0.25060000
C       -1.52300000      -0.45370000       0.03120000
C       -1.83140000      -1.85620000       0.44770000
N       -1.91690000      -0.77060000       1.43090000
C       -2.50730000       0.27830000      -0.73050000
C       -3.29150000       0.89970000      -1.40330000
C       -4.29600000       1.60180000      -2.20080000
O       -4.92680000       0.78130000      -3.17570000
H        1.31210000       1.59270000      -0.10080000
H       -0.36140000       2.06760000      -0.43620000
H        0.10100000       1.55150000       1.18980000
H        0.13330000      -0.24540000      -1.31500000
H        0.57510000      -0.77250000       0.30410000
H       -2.78420000      -2.29790000       0.17260000
H       -0.99920000      -2.55430000       0.49680000
H       -1.08040000      -0.76610000       2.01180000
H       -5.03560000       2.06200000      -1.52600000
H       -3.82900000       2.42000000      -2.76020000
H       -5.25110000      -0.00350000      -2.72180000
