19
Properties=species:S:1:pos:R:3 gdb_93728=T pbc="F F F"
O       -0.11230000       1.48330000       0.12950000
C        0.04340000       0.07520000       0.07780000
C        0.62120000      -0.56240000       1.35430000
C        0.11680000      -2.00490000       1.26700000
C       -1.36710000      -1.82860000       0.83670000
O       -2.16480000      -1.46000000       1.96980000
C       -1.34470000      -0.57920000      -0.09090000
C       -1.91370000      -3.03100000       0.20390000
C       -2.35560000      -4.03960000      -0.27960000
H        0.76330000       1.87730000       0.19500000
H        0.68230000      -0.20130000      -0.77650000
H        1.71050000      -0.48440000       1.42180000
H        0.18030000      -0.06220000       2.22250000
H        0.65890000      -2.56080000       0.49360000
H        0.19540000      -2.57040000       2.19970000
H       -2.26490000      -2.24470000       2.52070000
H       -2.11680000       0.11350000       0.24950000
H       -1.55390000      -0.84360000      -1.12790000
H       -2.75390000      -4.92110000      -0.71820000
