18
Properties=species:S:1:pos:R:3 gdb_100177=T pbc="F F F"
C        0.06300000       0.63190000      -0.93200000
O       -0.40170000       0.36440000       0.38480000
C        0.46200000      -0.29340000       1.27760000
C        1.86850000       0.34350000       1.37610000
C       -0.23060000      -0.12250000       2.63400000
O        0.14940000      -0.61830000       3.66630000
C        0.60340000      -1.81110000       0.92030000
N        1.20730000      -2.56050000       1.88260000
O        0.25200000      -2.24420000      -0.15700000
H        0.38310000      -0.28090000      -1.43820000
H       -0.78990000       1.05950000      -1.46380000
H        0.87670000       1.36940000      -0.93400000
H        1.77840000       1.42450000       1.51870000
H        2.41150000      -0.07910000       2.22290000
H        2.44580000       0.15490000       0.46800000
H       -1.12520000       0.52900000       2.58100000
H        1.21680000      -2.21800000       2.83370000
H        1.22440000      -3.55730000       1.72940000
