15
Properties=species:S:1:pos:R:3 gdb_46805=T pbc="F F F"
N       -0.07010000       1.26220000       0.33250000
C        0.01240000       0.03560000       0.00800000
N        1.11170000      -0.74930000      -0.28480000
C        0.81870000      -2.12800000      -0.65120000
C       -0.68970000      -2.20380000      -0.50340000
O       -1.13260000      -1.95390000       0.82110000
C       -1.19540000      -0.86200000      -0.13760000
C       -2.48500000      -0.34270000      -0.46940000
C       -3.56810000       0.08890000      -0.75650000
H        0.85090000       1.70340000       0.36840000
H        2.02880000      -0.47620000       0.02680000
H        1.11750000      -2.35040000      -1.68430000
H        1.31400000      -2.84710000       0.01310000
H       -1.27200000      -2.91000000      -1.08700000
H       -4.52410000       0.48200000      -1.00030000
