14
Properties=species:S:1:pos:R:3 gdb_4513=T pbc="F F F"
N        0.19430000       1.43390000       0.05320000
C        0.01510000       0.03710000      -0.00980000
C       -1.08420000      -0.78380000      -0.04330000
O       -2.37140000      -0.31680000      -0.01750000
C       -0.64830000      -2.14580000      -0.10680000
C        0.72990000      -2.09800000      -0.10950000
O        1.68400000      -3.06460000      -0.15680000
N        1.13150000      -0.80670000      -0.05210000
H       -0.22250000       1.83160000       0.88900000
H       -0.22800000       1.90580000      -0.74030000
H       -2.96660000      -1.07030000      -0.05000000
H       -1.26350000      -3.03240000      -0.14500000
H        1.24400000      -3.91890000      -0.19350000
H        2.08360000      -0.48510000      -0.04080000
