17
Properties=species:S:1:pos:R:3 gdb_63013=T pbc="F F F"
C        0.07530000       1.52100000       0.00640000
C       -0.00320000      -0.00240000      -0.01030000
O       -1.34500000      -0.48180000       0.03450000
C        0.70960000      -0.63400000      -1.22430000
O        2.10240000      -0.34940000      -1.33980000
C        1.71530000      -1.60430000      -0.76990000
C        1.70390000      -1.61220000       0.75060000
O        2.07100000      -0.35900000       1.33540000
C        0.68400000      -0.65360000       1.20130000
H        1.12040000       1.83690000       0.01470000
H       -0.40390000       1.94430000      -0.88490000
H       -0.42810000       1.92050000       0.89180000
H       -1.86430000       0.02740000      -0.59670000
H        0.15840000      -0.71880000      -2.16020000
H        2.00230000      -2.49270000      -1.32410000
H        1.99010000      -2.50280000       1.30160000
H        0.11130000      -0.74530000       2.12130000
