16
Properties=species:S:1:pos:R:3 gdb_8855=T pbc="F F F"
C        0.19590000       1.41380000       0.13960000
C       -0.06190000      -0.09750000      -0.02030000
C       -1.55340000      -0.42870000      -0.04620000
O       -2.09440000      -0.02840000       1.20500000
C        0.62490000      -0.63360000      -1.26690000
O        0.02250000      -1.08540000      -2.21840000
C        2.08010000      -0.57310000      -1.26140000
C        3.28320000      -0.53430000      -1.24440000
H        1.26420000       1.62790000       0.22180000
H       -0.20110000       1.96690000      -0.71840000
H       -0.30820000       1.76880000       1.04000000
H        0.38890000      -0.60710000       0.84270000
H       -2.03200000       0.09850000      -0.88410000
H       -1.69010000      -1.50510000      -0.21970000
H       -3.04240000      -0.18630000       1.18440000
H        4.34600000      -0.50610000      -1.24570000
