14
Properties=species:S:1:pos:R:3 gdb_129371=T pbc="F F F"
N       -0.06670000       1.32690000       0.13220000
C        0.03240000      -0.04080000       0.03470000
N        1.11880000      -0.73920000      -0.01420000
C       -1.22780000      -0.76140000       0.03250000
C       -1.40990000      -2.15070000       0.01400000
N       -0.46170000      -3.08640000      -0.00030000
O       -2.68460000      -2.43880000       0.01220000
N       -3.39290000      -1.04810000       0.03080000
N       -2.47370000      -0.21980000       0.04070000
H        0.73540000       1.87430000      -0.13380000
H       -0.96530000       1.74170000      -0.05980000
H        1.95140000      -0.15260000       0.00220000
H        0.49130000      -2.73000000      -0.01560000
H       -0.69140000      -4.06330000      -0.02700000
