13
Properties=species:S:1:pos:R:3 gdb_1210=T pbc="F F F"
C       -0.09460000       1.47700000      -0.09210000
C       -0.01950000      -0.03260000      -0.22420000
O        0.83830000      -0.60200000      -0.86910000
N       -1.01240000      -0.71790000       0.43750000
C       -1.13690000      -2.15440000       0.30700000
C       -2.40450000      -2.55510000      -0.31750000
N       -3.41660000      -2.85880000      -0.78420000
H        0.91750000       1.88180000      -0.12030000
H       -0.64500000       1.88240000      -0.94760000
H       -0.59550000       1.80120000       0.82400000
H       -1.74050000      -0.21090000       0.91310000
H       -0.29610000      -2.47810000      -0.31490000
H       -1.05230000      -2.65650000       1.27820000
