19
Properties=species:S:1:pos:R:3 gdb_12691=T pbc="F F F"
C       -0.13100000       1.56090000       0.00100000
C        0.09420000       0.05190000      -0.01380000
C        0.88910000      -0.51220000      -1.20360000
C        1.59930000      -1.75310000      -0.62620000
N        1.72630000      -1.43500000       0.78490000
C        2.50520000      -2.23600000       1.69760000
C        0.88530000      -0.43880000       1.20650000
O        0.77800000      -0.03690000       2.34840000
H        0.81600000       2.09900000      -0.11450000
H       -0.79870000       1.87120000      -0.80850000
H       -0.57110000       1.86080000       0.95540000
H       -0.88110000      -0.45290000       0.04750000
H        0.26910000      -0.75490000      -2.06920000
H        1.63690000       0.22130000      -1.52420000
H        1.00820000      -2.67100000      -0.77290000
H        2.58340000      -1.92450000      -1.07760000
H        3.56390000      -2.24300000       1.41150000
H        2.40110000      -1.79780000       2.69190000
H        2.15050000      -3.27520000       1.72370000
