17
Properties=species:S:1:pos:R:3 gdb_124780=T pbc="F F F"
C        0.05020000       1.52650000       0.12230000
C        0.02270000      -0.00470000       0.03910000
O       -1.29690000      -0.52180000       0.05860000
C        0.77400000      -0.49520000      -1.16880000
N        1.95700000      -1.02070000      -1.24100000
C        2.09800000      -1.24140000      -2.59860000
C        3.31580000      -1.84830000      -3.20340000
N        1.06670000      -0.87770000      -3.31480000
O        0.17110000      -0.36900000      -2.35790000
H        1.07730000       1.89720000       0.19070000
H       -0.41510000       1.96960000      -0.76460000
H       -0.50340000       1.84820000       1.00770000
H        0.52390000      -0.43110000       0.91170000
H       -1.75050000      -0.21300000      -0.73430000
H        3.48740000      -2.84490000      -2.78580000
H        3.20480000      -1.92550000      -4.28580000
H        4.19560000      -1.24040000      -2.97250000
