14
Properties=species:S:1:pos:R:3 gdb_130217=T pbc="F F F"
N        0.15590000       1.29970000      -0.34380000
C        0.09370000      -0.06810000      -0.13560000
N       -1.05260000      -0.72040000       0.06150000
N       -0.64990000      -1.97490000       0.28780000
N        0.64880000      -2.19650000       0.24140000
C        1.16020000      -0.99300000      -0.02010000
C        2.64140000      -0.77320000      -0.12540000
C        2.99250000       0.05680000      -1.28100000
N        3.22030000       0.74660000      -2.18000000
H        0.86360000       1.58260000      -1.01020000
H       -0.74540000       1.69630000      -0.57390000
H       -1.30770000      -2.71180000       0.47900000
H        3.03530000      -0.27860000       0.77250000
H        3.14390000      -1.74170000      -0.20420000
