15
Properties=species:S:1:pos:R:3 gdb_19898=T pbc="F F F"
O       -0.46940000       0.35620000      -0.83360000
C        0.01750000       0.99220000       0.06630000
C        1.11900000       2.00270000      -0.06990000
C        1.54760000       2.81430000      -1.25020000
C        0.41140000       3.62830000      -1.90320000
C       -0.91230000       3.56060000      -1.25330000
N        0.13390000       4.38990000      -0.62790000
C        1.17340000       3.52280000       0.03810000
H       -0.28680000       0.81460000       1.12400000
H        1.98140000       1.62820000       0.48940000
H        2.51930000       2.71290000      -1.71520000
H        0.57120000       4.16590000      -2.83170000
H       -1.69250000       4.17390000      -1.69680000
H       -1.28130000       2.66810000      -0.76860000
H        1.78980000       4.00180000       0.78830000
