20
Properties=species:S:1:pos:R:3 gdb_35906=T pbc="F F F"
N       -0.04340000      -1.16490000      -0.11170000
C       -0.02020000      -0.01070000      -0.05090000
C        0.00820000       1.45410000       0.03540000
C       -0.81540000       1.95720000       1.24510000
C       -0.68220000       3.47730000       1.37280000
C        0.75810000       3.89870000       1.70470000
C        1.80890000       3.20130000       0.83790000
C        2.33390000       1.84040000       1.23250000
C        1.44570000       1.97320000       0.02610000
H       -0.48610000       1.83250000      -0.86990000
H       -1.86000000       1.66440000       1.10450000
H       -0.47420000       1.46330000       2.16240000
H       -0.99500000       3.94060000       0.42750000
H       -1.36520000       3.84880000       2.14370000
H        0.85330000       4.98250000       1.58570000
H        0.95830000       3.69200000       2.76340000
H        2.52990000       3.86470000       0.37100000
H        3.38100000       1.61170000       1.06930000
H        1.91930000       1.38860000       2.12840000
H        1.93250000       1.86400000      -0.93790000
