18
Properties=species:S:1:pos:R:3 gdb_54191=T pbc="F F F"
C        0.79320000       0.34730000       0.77490000
C       -0.31930000       0.27080000      -0.23480000
O       -1.28090000       1.01610000      -0.19840000
C       -0.27360000      -0.76940000      -1.36150000
O       -1.28570000      -0.48130000      -2.28240000
C        1.07980000      -1.09260000      -2.10270000
C        0.90760000      -2.56530000      -1.71120000
N        0.92140000      -2.61100000      -0.23070000
C       -0.33060000      -2.26980000      -0.94560000
H        1.09960000      -0.65410000       1.08670000
H        1.67060000       0.80770000       0.30400000
H        0.48080000       0.96590000       1.61750000
H       -1.81950000       0.20660000      -1.84630000
H        0.93580000      -0.90280000      -3.16680000
H        1.99400000      -0.61230000      -1.74710000
H        1.17400000      -3.43970000      -2.29080000
H        0.84560000      -3.58820000       0.05000000
H       -1.24230000      -2.83990000      -0.81650000
