21
Properties=species:S:1:pos:R:3 gdb_70723=T pbc="F F F"
C       -0.11590000       1.51520000      -0.16260000
C       -0.04030000       0.00790000       0.03890000
C       -0.52290000      -0.51860000       1.39060000
C        0.94710000      -0.48280000       1.07730000
C        1.73860000      -1.76890000       0.94800000
O        0.97710000      -2.86690000       0.49330000
C        0.88040000      -2.98540000      -0.91090000
C        0.01880000      -1.96900000      -1.60820000
C       -0.35290000      -0.75340000      -1.20220000
H        0.61710000       1.85520000      -0.90300000
H       -1.10950000       1.81510000      -0.51620000
H        0.07920000       2.05040000       0.77150000
H       -0.93100000       0.19400000       2.10030000
H       -0.99290000      -1.49480000       1.38960000
H        1.52360000       0.30460000       1.55980000
H        2.61690000      -1.61690000       0.29890000
H        2.11130000      -2.05170000       1.94060000
H        1.89250000      -2.98320000      -1.35780000
H        0.46670000      -3.98490000      -1.09240000
H       -0.33980000      -2.30240000      -2.58120000
H       -0.99540000      -0.19830000      -1.88520000
