15
Properties=species:S:1:pos:R:3 gdb_14120=T pbc="F F F"
O       -0.06780000       0.25640000      -0.89370000
C       -0.10670000       1.26080000       0.00260000
O        0.81040000       1.52010000       0.73630000
C       -1.41020000       1.98220000      -0.00200000
C       -1.66850000       3.28560000       0.69560000
C       -2.44580000       2.08050000       1.13230000
C       -3.50650000       1.71100000       0.09270000
N       -2.45060000       1.59850000      -0.96810000
H       -2.55920000       2.26370000      -1.73090000
H       -0.95080000       0.22560000      -1.30930000
H       -0.87300000       3.58770000       1.36760000
H       -2.15420000       4.09120000       0.14930000
H       -2.36010000       1.66340000       2.12620000
H       -3.99050000       0.74690000       0.26830000
H       -4.27450000       2.46920000      -0.09760000
