21
Properties=species:S:1:pos:R:3 gdb_54380=T pbc="F F F"
C       -0.07520000       1.46480000       0.01110000
C       -0.00270000      -0.05210000       0.00280000
O        1.05230000      -0.64730000      -0.01220000
C       -1.30970000      -0.79010000       0.01110000
C       -2.45470000      -0.71330000      -1.05300000
C       -2.94580000      -1.73530000       0.02070000
C       -4.24490000      -2.49500000       0.02840000
C       -1.49980000      -2.32740000       0.00710000
C       -2.43770000      -0.72090000       1.09360000
H        0.93240000       1.88210000       0.00210000
H       -0.63280000       1.82500000      -0.86060000
H       -0.61330000       1.81620000       0.89850000
H       -3.00490000       0.23010000      -1.11950000
H       -2.21790000      -1.11330000      -2.04300000
H       -4.33170000      -3.13240000      -0.85840000
H       -4.31740000      -3.13880000       0.91170000
H       -5.10240000      -1.81310000       0.03780000
H       -1.19150000      -2.85250000      -0.90060000
H       -1.17720000      -2.85890000       0.90590000
H       -2.18540000      -1.12790000       2.07700000
H       -2.98670000       0.22190000       1.17560000
