22
Properties=species:S:1:pos:R:3 gdb_61515=T pbc="F F F"
C       -1.02930000      -3.36680000      -1.65500000
C        0.24670000      -2.71140000      -2.22310000
C        0.44610000      -1.23170000      -1.76930000
C       -0.12250000      -0.19280000      -2.72640000
C       -1.62640000      -0.19280000      -2.93430000
C        0.57440000       1.14780000      -2.74480000
C        0.74250000       0.19540000      -3.90550000
C        1.41400000      -3.51800000      -1.85050000
N        2.33450000      -4.14810000      -1.54630000
H       -0.98180000      -3.40820000      -0.56310000
H       -1.91320000      -2.79220000      -1.93790000
H       -1.14540000      -4.38730000      -2.02880000
H        0.19720000      -2.72540000      -3.31920000
H        0.00630000      -1.11030000      -0.77120000
H        1.51730000      -1.04230000      -1.65700000
H       -2.16080000      -0.10560000      -1.98100000
H       -1.92970000       0.65040000      -3.56230000
H       -1.97340000      -1.10490000      -3.43230000
H       -0.03300000       2.03410000      -2.89410000
H        1.42050000       1.29870000      -2.08270000
H        1.70310000      -0.29520000      -4.02400000
H        0.25220000       0.43900000      -4.84210000
