25
Properties=species:S:1:pos:R:3 gdb_88193=T pbc="F F F"
C       -0.10730000       1.52950000      -0.12540000
C        0.02790000       0.02840000       0.01620000
C        1.35840000      -0.66510000      -0.18150000
C        0.70310000      -0.65210000       1.18510000
C        1.35590000       0.15130000       2.30170000
C        2.39330000      -0.69390000       3.06080000
C        1.78080000      -2.00050000       3.58470000
C        1.13030000      -2.80340000       2.44870000
C        0.09750000      -1.95500000       1.69020000
H        0.78890000       2.05800000       0.21150000
H       -0.26980000       1.80380000      -1.17380000
H       -0.95610000       1.91380000       0.45200000
H       -0.83050000      -0.51610000      -0.37350000
H        1.38770000      -1.59430000      -0.74220000
H        2.23080000      -0.03440000      -0.32840000
H        1.83040000       1.05590000       1.90930000
H        0.58140000       0.48630000       3.00740000
H        3.22530000      -0.93100000       2.38420000
H        2.81660000      -0.11250000       3.88790000
H        2.54460000      -2.60330000       4.08910000
H        1.01990000      -1.76450000       4.34240000
H        1.90900000      -3.13370000       1.74810000
H        0.65750000      -3.71000000       2.84340000
H       -0.74200000      -1.72450000       2.36290000
H       -0.32270000      -2.52460000       0.85300000
