22
Properties=species:S:1:pos:R:3 gdb_113776=T pbc="F F F"
O        0.84220000      -0.91780000      -1.30860000
C       -0.11020000      -1.96050000      -1.20820000
C       -1.48470000      -1.53660000      -0.71270000
C       -1.64640000      -0.39860000       0.22920000
N       -2.18910000      -0.32020000      -1.12380000
C       -1.69030000       0.63530000      -2.10680000
C       -0.89410000       1.82200000      -1.59400000
C       -1.39900000       0.09570000      -3.49530000
C       -2.65290000       0.90180000      -3.23820000
H        0.62150000      -0.40880000      -2.09470000
H       -0.21260000      -2.49430000      -2.16500000
H        0.29580000      -2.68280000      -0.48940000
H       -2.15150000      -2.39490000      -0.60970000
H       -2.38020000      -0.42950000       1.03190000
H       -0.73950000       0.15420000       0.45850000
H        0.06080000       1.52640000      -1.15000000
H       -0.68570000       2.51760000      -2.41230000
H       -1.46680000       2.36560000      -0.83500000
H       -0.60450000       0.55160000      -4.07930000
H       -1.52370000      -0.96830000      -3.66210000
H       -3.59050000       0.35980000      -3.20850000
H       -2.71180000       1.90480000      -3.64700000
