16
Properties=species:S:1:pos:R:3 gdb_34016=T pbc="F F F"
N        0.04120000      -1.14340000       0.06520000
C        0.03690000       0.01210000       0.04920000
C        0.01210000       1.46160000       0.05870000
O        0.51000000       2.06860000      -1.16000000
C        1.30020000       2.20040000       0.01540000
C        1.36300000       3.55600000       0.67780000
C        0.01440000       4.30230000       0.63220000
C       -1.14850000       3.41300000       0.98190000
C       -1.15760000       2.10640000       0.71610000
H        2.22020000       1.61610000       0.00800000
H        1.67240000       3.39520000       1.71840000
H        2.14400000       4.16110000       0.20530000
H        0.04940000       5.16550000       1.30400000
H       -0.13860000       4.70420000      -0.37700000
H       -2.01910000       3.87060000       1.44250000
H       -2.00520000       1.47540000       0.95750000
