20
Properties=species:S:1:pos:R:3 gdb_10759=T pbc="F F F"
C        0.09340000       1.53320000       0.28930000
C       -0.02000000       0.02810000       0.02760000
O        0.35650000      -0.69380000       1.21760000
C       -1.49390000      -0.37690000      -0.16660000
O       -2.27150000      -0.10400000       0.98060000
C        0.80760000      -0.48850000      -1.13950000
C        0.94450000       0.23250000      -2.45700000
C        2.13820000       0.10260000      -1.54540000
H        1.10210000       1.80490000       0.61770000
H       -0.14320000       2.12270000      -0.60130000
H       -0.61370000       1.80730000       1.07440000
H        1.26980000      -0.46960000       1.42300000
H       -1.92840000       0.18800000      -0.99670000
H       -1.52940000      -1.44630000      -0.42780000
H       -1.77680000      -0.48100000       1.71900000
H        0.74970000      -1.57150000      -1.20970000
H        0.91680000      -0.36030000      -3.36450000
H        0.49740000       1.21480000      -2.55990000
H        2.48440000       1.00130000      -1.04700000
H        2.93270000      -0.58020000      -1.82550000
