21
Properties=species:S:1:pos:R:3 gdb_115077=T pbc="F F F"
O        0.01190000       1.46120000      -0.05200000
C        0.04260000       0.04130000      -0.02900000
C       -1.39660000      -0.48000000       0.02010000
C       -2.16580000      -0.03610000      -1.23960000
C       -3.66370000      -0.11320000      -1.14100000
C       -4.38850000      -1.06720000      -0.54000000
C       -3.93280000      -2.28450000       0.12630000
C       -2.69270000      -2.69430000       0.43230000
C       -1.37470000      -1.99900000       0.23740000
H        0.91140000       1.78120000      -0.16360000
H        0.54780000      -0.35950000      -0.92450000
H        0.59650000      -0.32340000       0.85060000
H       -1.87560000      -0.01190000       0.88890000
H       -1.87980000       0.99700000      -1.45690000
H       -1.81990000      -0.63070000      -2.10000000
H       -4.20750000       0.70270000      -1.61190000
H       -5.47040000      -0.95660000      -0.57290000
H       -4.73820000      -2.96570000       0.39450000
H       -2.60610000      -3.67300000       0.90140000
H       -0.83940000      -2.48140000      -0.59650000
H       -0.75630000      -2.21200000       1.12140000
