19
Properties=species:S:1:pos:R:3 gdb_53825=T pbc="F F F"
C        0.81010000       1.18050000      -0.34670000
C        0.44020000      -0.27770000      -0.45390000
O        0.83720000      -1.13400000       0.30290000
C       -0.52280000      -0.64740000      -1.61340000
O       -0.95660000       0.23320000      -2.32060000
C       -0.83580000      -2.11670000      -1.80660000
C        0.16690000      -2.74090000      -2.77020000
C        1.50590000      -3.23150000      -2.27430000
C        0.45210000      -4.21990000      -2.70500000
H        1.30670000       1.50720000      -1.26630000
H       -0.09330000       1.79150000      -0.25840000
H        1.46320000       1.33380000       0.51240000
H       -0.78830000      -2.63160000      -0.84400000
H       -1.84850000      -2.19320000      -2.21410000
H        0.15170000      -2.29500000      -3.76070000
H        2.37110000      -3.09180000      -2.91300000
H        1.70960000      -3.13550000      -1.21390000
H       -0.04790000      -4.79690000      -1.93410000
H        0.59240000      -4.75370000      -3.63840000
