16
Properties=species:S:1:pos:R:3 gdb_129931=T pbc="F F F"
N        0.23350000       1.43660000      -0.06390000
C        0.10780000       0.04390000      -0.06030000
C       -1.02840000      -0.74300000      -0.04690000
N       -0.59410000      -2.03440000       0.03540000
N        0.73800000      -2.14570000       0.07550000
C        1.17910000      -0.88740000       0.02680000
C        2.64520000      -0.55730000       0.03950000
C        3.01160000      -0.02740000      -1.33520000
O        2.88790000       1.12990000      -1.66230000
H        1.06070000       1.74730000      -0.56330000
H       -0.58500000       1.91330000      -0.41680000
H       -2.07650000      -0.49380000      -0.08730000
H       -1.15520000      -2.86710000       0.07920000
H        2.85970000       0.22070000       0.78050000
H        3.21690000      -1.45940000       0.27070000
H        3.35290000      -0.78960000      -2.06830000
