14
Properties=species:S:1:pos:R:3 gdb_25244=T pbc="F F F"
N       -0.08690000       1.33980000       0.08040000
C       -0.04890000       0.06900000       0.00070000
N        1.05110000      -0.80520000      -0.12910000
C        0.71190000      -2.23930000      -0.01800000
C       -0.78010000      -2.15300000       0.00110000
C       -1.16910000      -0.86360000       0.01040000
O       -2.52320000      -0.81370000       0.00830000
C       -2.87090000      -2.13420000      -0.00290000
N       -1.88330000      -2.98130000      -0.01200000
H        0.85110000       1.74220000       0.05110000
H        1.94350000      -0.49190000       0.21820000
H        1.10150000      -2.80750000      -0.87170000
H        1.12250000      -2.68770000       0.89680000
H       -3.92850000      -2.34590000       0.00030000
