13
Properties=species:S:1:pos:R:3 gdb_5099=T pbc="F F F"
O        0.07140000       1.36680000      -0.02510000
C        0.05740000       0.00380000      -0.04140000
C       -0.01750000      -0.80460000      -1.14520000
N        0.01650000      -2.12290000      -0.68280000
C        0.09650000      -2.13450000       0.67290000
O        0.11640000      -3.31170000       1.34470000
C        0.14240000      -0.83240000       1.11370000
O        0.17510000      -0.40970000       2.43220000
H       -0.06390000       1.63450000       0.89130000
H       -0.07820000      -0.57550000      -2.19380000
H       -0.07810000      -2.94630000      -1.24900000
H        0.02210000      -3.10040000       2.28090000
H        1.09130000      -0.23770000       2.67940000
