23
Properties=species:S:1:pos:R:3 gdb_60418=T pbc="F F F"
C       -0.06350000       1.61290000      -0.04490000
C       -0.02540000       0.10570000       0.16120000
O        0.24670000      -0.14440000       1.53070000
C       -1.33760000      -0.56620000      -0.23430000
O       -1.20830000      -1.94200000       0.08790000
C       -2.38970000      -2.68740000      -0.05810000
C       -2.84840000      -3.10900000      -1.48340000
C       -3.18380000      -4.50710000      -0.89280000
C       -2.26000000      -4.17700000       0.31290000
H        0.88430000       2.05570000       0.27150000
H       -0.22720000       1.86090000      -1.09820000
H       -0.86360000       2.06190000       0.55220000
H        0.77120000      -0.32820000      -0.46750000
H        0.05870000      -1.08160000       1.66500000
H       -2.17080000      -0.12070000       0.33360000
H       -1.53910000      -0.43070000      -1.30790000
H       -3.21250000      -2.20240000       0.49010000
H       -3.64910000      -2.54190000      -1.96340000
H       -1.98470000      -3.15440000      -2.15360000
H       -4.23300000      -4.58330000      -0.59530000
H       -2.93040000      -5.38120000      -1.49500000
H       -1.23400000      -4.51120000       0.13460000
H       -2.56950000      -4.48610000       1.31340000
