16
Properties=species:S:1:pos:R:3 gdb_51998=T pbc="F F F"
O        0.54020000      -0.22040000      -0.28280000
C        0.25960000       0.94270000      -0.37560000
C        1.21920000       2.07320000      -0.00950000
C        1.16980000       3.18890000      -1.04080000
O        0.11990000       3.69030000      -1.37830000
C        2.49250000       3.61730000      -1.64460000
N        2.28720000       4.67740000      -2.59340000
C        3.32220000       5.37370000      -3.12730000
O        4.49100000       5.14460000      -2.89620000
H       -0.73010000       1.29180000      -0.73430000
H        0.85680000       2.49940000       0.93630000
H        2.22170000       1.67080000       0.14860000
H        3.17750000       3.92700000      -0.84260000
H        2.96620000       2.73520000      -2.10300000
H        1.32700000       4.93750000      -2.76920000
H        2.97830000       6.17860000      -3.80520000
