21
Properties=species:S:1:pos:R:3 gdb_85971=T pbc="F F F"
C       -0.46790000       1.84780000       0.27930000
C       -0.06450000       0.39200000       0.04890000
C        0.97730000       0.11690000      -1.08200000
C        1.72220000      -0.84600000      -0.12270000
O        3.12700000      -0.87460000      -0.11270000
C        0.95840000      -0.21210000       1.06920000
C       -1.31450000      -0.46090000      -0.04670000
C       -2.03470000      -0.72110000      -1.29860000
O       -1.22620000      -1.73390000      -0.69100000
H        0.41550000       2.48040000       0.41060000
H       -1.04170000       2.24070000      -0.56760000
H       -1.08680000       1.95260000       1.17850000
H        0.62420000      -0.29490000      -2.02930000
H        1.57150000       1.01490000      -1.28570000
H        1.40230000      -1.87580000      -0.29050000
H        3.44270000       0.02380000       0.03160000
H        1.55230000       0.57590000       1.54700000
H        0.57380000      -0.87980000       1.84490000
H       -1.90210000      -0.48230000       0.87500000
H       -3.10730000      -0.90760000      -1.27790000
H       -1.65230000      -0.32050000      -2.23600000
