19
Properties=species:S:1:pos:R:3 gdb_126146=T pbc="F F F"
C       -0.18490000       1.56950000      -0.04030000
C       -0.02210000       0.04750000      -0.00860000
C        0.81200000      -0.52610000      -1.17920000
C        2.27830000      -0.07490000      -1.14540000
C        0.70670000      -2.02190000      -1.20490000
C        1.62320000      -3.01200000      -1.03730000
O        1.02240000      -4.19710000      -1.14280000
N       -0.35540000      -3.91930000      -1.39310000
N       -0.49620000      -2.67180000      -1.42050000
H        0.77020000       2.09170000       0.07240000
H       -0.63660000       1.89880000      -0.98290000
H       -0.83670000       1.90310000       0.77260000
H        0.44090000      -0.26190000       0.93760000
H       -1.01080000      -0.42260000      -0.03570000
H        0.35890000      -0.15870000      -2.11070000
H        2.76530000      -0.38870000      -0.21470000
H        2.84270000      -0.49530000      -1.98360000
H        2.35450000       1.01280000      -1.20810000
H        2.68380000      -3.01790000      -0.85020000
