22
Properties=species:S:1:pos:R:3 gdb_86242=T pbc="F F F"
C       -0.19950000       1.50730000      -0.01580000
C        0.12500000       0.01930000       0.08020000
C        0.78300000      -0.58120000      -1.17440000
C        1.42950000      -1.89520000      -0.69440000
C        2.69430000      -2.27190000      -1.46730000
N        1.67880000      -1.62680000       0.73650000
C        1.14060000      -0.33940000       1.17610000
C        2.10630000      -2.55660000       1.62510000
O        2.21610000      -2.37920000       2.82320000
H        0.70430000       2.09390000      -0.21660000
H       -0.91300000       1.70510000      -0.82210000
H       -0.63890000       1.87920000       0.91540000
H       -0.80000000      -0.53650000       0.28360000
H        0.08090000      -0.74590000      -1.99590000
H        1.56400000       0.09830000      -1.54020000
H        0.70210000      -2.71440000      -0.78600000
H        3.45150000      -1.48740000      -1.37140000
H        3.12690000      -3.20900000      -1.10530000
H        2.46130000      -2.40120000      -2.52950000
H        1.93510000       0.41830000       1.23620000
H        0.71020000      -0.44360000       2.17450000
H        2.35150000      -3.52210000       1.13860000
