21
Properties=species:S:1:pos:R:3 gdb_26176=T pbc="F F F"
C       -0.02920000       1.54730000       0.01810000
C       -0.00060000       0.00720000       0.05580000
C        0.71130000      -0.50250000       1.32370000
C       -1.37470000      -0.56980000      -0.07060000
C       -1.97390000      -1.37420000      -0.98910000
C       -3.32990000      -1.58490000      -0.55190000
C       -4.38800000      -2.40010000      -1.22770000
C       -3.44050000      -0.88350000       0.60620000
O       -2.26730000      -0.26110000       0.91600000
H        0.98550000       1.95320000       0.08170000
H       -0.48790000       1.91100000      -0.90600000
H       -0.60690000       1.94210000       0.85930000
H        0.55720000      -0.34860000      -0.81900000
H        1.72580000      -0.09590000       1.38580000
H        0.16600000      -0.19500000       2.22130000
H        0.77750000      -1.59440000       1.32720000
H       -1.51090000      -1.77570000      -1.87820000
H       -4.08530000      -3.44890000      -1.32740000
H       -5.32530000      -2.37680000      -0.66470000
H       -4.59690000      -2.02990000      -2.23800000
H       -4.25050000      -0.73140000       1.30110000
