21
Properties=species:S:1:pos:R:3 gdb_96501=T pbc="F F F"
C        0.01160000       1.59150000       0.07650000
C       -0.02110000       0.05580000       0.03630000
C        0.65970000      -0.49840000      -1.24540000
C        1.23720000      -1.93180000      -1.14430000
C        2.64670000      -2.02000000      -0.51680000
C        2.71040000      -1.65010000       0.96660000
O        2.02520000      -0.40130000       1.17260000
C        0.65980000      -0.55480000       1.24260000
O        0.12150000      -1.16680000       2.12260000
H        1.04310000       1.95140000       0.13200000
H       -0.44540000       2.00200000      -0.82960000
H       -0.53760000       1.98020000       0.93900000
H       -1.06060000      -0.28370000       0.07870000
H       -0.08390000      -0.46760000      -2.04940000
H        1.46550000       0.18200000      -1.54380000
H        0.53950000      -2.58230000      -0.59960000
H        1.30220000      -2.34530000      -2.15650000
H        3.03920000      -3.03770000      -0.63490000
H        3.31780000      -1.35660000      -1.07630000
H        2.25170000      -2.41680000       1.60090000
H        3.74040000      -1.49820000       1.29730000
