19
Properties=species:S:1:pos:R:3 gdb_84748=T pbc="F F F"
C        0.18850000       1.62960000      -0.04440000
C       -0.01310000       0.10110000       0.02750000
C        0.40550000      -0.56640000      -1.25380000
C        1.54520000      -1.25230000      -1.31410000
N        2.34300000      -1.41710000      -0.18980000
C        1.88650000      -1.16550000       1.10210000
O        2.52460000      -1.54390000       2.07060000
N        0.68730000      -0.50010000       1.17460000
C        0.13870000      -0.24400000       2.49510000
H        1.24620000       1.86660000      -0.19180000
H       -0.37600000       2.04040000      -0.88760000
H       -0.15970000       2.12660000       0.86600000
H       -1.08570000      -0.08180000       0.19420000
H       -0.21180000      -0.43260000      -2.13200000
H        1.91490000      -1.71820000      -2.22000000
H        3.15220000      -2.01460000      -0.21630000
H        0.65960000      -0.87720000       3.21120000
H        0.26340000       0.80210000       2.80140000
H       -0.93250000      -0.47850000       2.50160000
