14
Properties=species:S:1:pos:R:3 gdb_132117=T pbc="F F F"
N        0.03920000       1.46700000       0.16530000
C       -0.00100000       0.05350000       0.06360000
C       -1.13390000      -0.69780000       0.06220000
F       -2.34910000      -0.17160000       0.10920000
N       -1.09920000      -2.04560000       0.04810000
C        0.10630000      -2.78010000      -0.03110000
N        0.01260000      -4.05170000      -0.09000000
N        1.27600000      -2.02590000      -0.02400000
C        1.19810000      -0.73000000       0.03550000
H        0.38410000       1.90190000      -0.68470000
H       -0.87920000       1.84850000       0.35790000
H       -1.95950000      -2.57440000       0.07130000
H        0.95150000      -4.44280000      -0.13070000
H        2.14060000      -0.18080000       0.06240000
