21
Properties=species:S:1:pos:R:3 gdb_89526=T pbc="F F F"
C        0.33190000       1.56580000      -0.21200000
C        0.03940000       0.10240000       0.05440000
O        0.65060000      -0.77260000      -0.92720000
C        1.28930000      -1.57700000       0.09590000
C        0.86350000      -3.02920000       0.02420000
C        2.80340000      -1.33800000       0.12060000
O        2.99590000      -0.08180000       0.75810000
C        2.01520000       0.00690000       1.78750000
C        0.75330000      -0.63650000       1.21520000
H        1.40870000       1.74840000      -0.23730000
H       -0.08960000       1.85430000      -1.18010000
H       -0.12530000       2.19910000       0.55670000
H       -1.04730000      -0.06280000       0.07430000
H        1.22410000      -3.48600000      -0.90400000
H        1.26730000      -3.60160000       0.86560000
H       -0.22670000      -3.11240000       0.03610000
H        3.30600000      -2.14210000       0.68390000
H        3.22940000      -1.28190000      -0.88420000
H        2.34210000      -0.54180000       2.68640000
H        1.90610000       1.06230000       2.05150000
H        0.10150000      -1.06700000       1.97610000
