19
Properties=species:S:1:pos:R:3 gdb_116422=T pbc="F F F"
O        0.18470000       1.34780000      -0.04650000
C        0.09010000      -0.05160000       0.02630000
C       -1.36500000      -0.56370000       0.04910000
C       -1.46720000      -2.07510000      -0.18740000
C       -2.89930000      -2.53980000       0.06890000
C       -3.28010000      -2.20870000       1.50200000
O       -3.05310000      -0.83100000       1.86020000
C       -2.06740000      -0.08860000       1.32100000
O       -1.81020000       0.97410000       1.83920000
H       -0.33930000       1.67760000       0.69890000
H        0.58380000      -0.45470000      -0.86540000
H        0.62280000      -0.45750000       0.90360000
H       -1.89330000      -0.04440000      -0.76400000
H       -1.14830000      -2.30870000      -1.20800000
H       -0.78160000      -2.60680000       0.48660000
H       -3.58760000      -2.04350000      -0.62580000
H       -3.00740000      -3.61920000      -0.08100000
H       -4.34180000      -2.37910000       1.69540000
H       -2.70540000      -2.82760000       2.20300000
