27
Properties=species:S:1:pos:R:3 gdb_123250=T pbc="F F F"
C        0.07640000       1.53790000       0.00940000
C        0.01710000       0.00820000       0.00170000
C       -1.41430000      -0.53980000       0.01240000
C       -1.47560000      -2.07010000       0.00480000
C       -2.90090000      -2.60560000       0.01560000
O       -2.85820000      -4.01590000       0.00750000
C       -4.13450000      -4.61620000       0.01670000
C       -3.96790000      -6.12960000       0.00660000
C       -5.30880000      -6.86720000       0.01570000
H        1.10980000       1.89850000       0.00150000
H       -0.42940000       1.95830000      -0.86710000
H       -0.41260000       1.94880000       0.89980000
H        0.54360000      -0.37560000      -0.88200000
H        0.56030000      -0.38500000       0.87110000
H       -1.94140000      -0.15490000       0.89690000
H       -1.95810000      -0.14550000      -0.85760000
H       -0.96200000      -2.46360000      -0.88100000
H       -0.94500000      -2.47300000       0.87630000
H       -3.44020000      -2.24340000       0.90900000
H       -3.45730000      -2.23370000      -0.86320000
H       -4.70200000      -4.29950000       0.91020000
H       -4.71940000      -4.28970000      -0.86200000
H       -3.38570000      -6.40920000      -0.87900000
H       -3.36850000      -6.41900000       0.87750000
H       -5.16140000      -7.95100000       0.00830000
H       -5.89610000      -6.61870000       0.90670000
H       -5.91330000      -6.60900000      -0.86090000
