21
Properties=species:S:1:pos:R:3 gdb_60355=T pbc="F F F"
C       -0.23750000       0.97380000       1.26790000
C       -0.13360000      -0.04530000       0.13950000
C        0.88450000      -1.14620000       0.44640000
O       -1.44830000      -0.57650000      -0.03890000
C       -1.67880000      -1.22360000      -1.26100000
C       -3.14560000      -1.67520000      -1.28000000
N       -3.46330000      -2.25350000      -2.58620000
C       -3.42710000      -2.58810000      -0.15020000
N       -3.67400000      -3.35450000       0.67950000
H        0.72960000       1.45360000       1.44400000
H       -0.97170000       1.74490000       1.02090000
H       -0.55450000       0.48200000       2.19280000
H        0.16240000       0.47190000      -0.78870000
H        0.96850000      -1.86740000      -0.37170000
H        1.87660000      -0.71150000       0.60400000
H        0.59350000      -1.68670000       1.35240000
H       -1.52320000      -0.55090000      -2.11780000
H       -1.02770000      -2.10120000      -1.39920000
H       -3.76220000      -0.78070000      -1.14140000
H       -2.99020000      -3.14710000      -2.69170000
H       -4.45740000      -2.45130000      -2.64420000
