18
Properties=species:S:1:pos:R:3 gdb_89973=T pbc="F F F"
C       -0.12790000       1.42720000      -0.10490000
N       -0.02000000      -0.00710000      -0.10710000
C       -1.02900000      -1.06940000      -0.14290000
C        0.14360000      -2.08760000      -0.03620000
C        0.28410000      -3.15790000       1.06120000
C        0.51360000      -4.12120000      -0.12040000
O        0.28970000      -3.05550000      -1.07440000
C        1.07200000      -0.83730000      -0.05190000
O        2.25610000      -0.62510000      -0.00510000
H        0.88470000       1.83490000      -0.05400000
H       -0.61260000       1.79580000      -1.01720000
H       -0.69940000       1.78680000       0.75980000
H       -1.72970000      -1.05530000       0.70080000
H       -1.57990000      -1.13910000      -1.08730000
H        1.13250000      -3.01610000       1.73180000
H       -0.62080000      -3.34030000       1.64300000
H        1.52680000      -4.52840000      -0.20270000
H       -0.21480000      -4.93060000      -0.24040000
