22
Properties=species:S:1:pos:R:3 gdb_123226=T pbc="F F F"
C       -0.18690000       1.52540000      -0.24640000
C       -0.00410000       0.01050000      -0.12610000
C        0.71590000      -0.58430000      -1.32820000
O        0.84290000      -1.98080000      -1.14190000
C        1.49330000      -2.64060000      -2.20950000
C        1.48510000      -4.13030000      -1.90170000
N        0.12790000      -4.61680000      -1.73690000
C       -0.36700000      -5.69080000      -2.40310000
O        0.25810000      -6.38970000      -3.17390000
H        0.77750000       2.03900000      -0.32570000
H       -0.77570000       1.78770000      -1.13210000
H       -0.70580000       1.92830000       0.62780000
H        0.56600000      -0.23390000       0.77750000
H       -0.97820000      -0.48230000      -0.02420000
H        0.15620000      -0.37390000      -2.25590000
H        1.71290000      -0.12590000      -1.44420000
H        0.96860000      -2.44580000      -3.15900000
H        2.53050000      -2.28330000      -2.31720000
H        1.93690000      -4.69850000      -2.71730000
H        2.06950000      -4.31260000      -0.99080000
H       -0.48150000      -4.07510000      -1.14470000
H       -1.43350000      -5.86720000      -2.15830000
