16
Properties=species:S:1:pos:R:3 gdb_68517=T pbc="F F F"
O       -0.08700000       1.41130000       0.10060000
C        0.01530000       0.03630000       0.06470000
C        0.91680000      -0.83780000       1.01640000
C        0.71480000      -1.95480000      -0.05950000
C       -0.81090000      -2.15340000      -0.06140000
N       -1.50890000      -1.68460000       1.15600000
C       -1.30210000      -0.74790000       0.03250000
C        0.79800000      -0.74440000      -1.04080000
O        1.38920000      -0.44390000      -2.03220000
H        0.68980000       1.78170000      -0.33520000
H        1.94690000      -0.47960000       1.05290000
H        0.51250000      -1.04030000       2.00430000
H        1.37330000      -2.81490000      -0.13680000
H       -1.26790000      -2.89720000      -0.70250000
H       -2.46950000      -2.01780000       1.11920000
H       -2.13820000      -0.35630000      -0.53380000
