21
Properties=species:S:1:pos:R:3 gdb_40960=T pbc="F F F"
C        0.14660000       1.37670000      -0.54820000
C        1.43120000       1.61200000       0.29450000
C        1.32020000       0.16400000       0.81410000
C       -0.15880000       0.12390000       0.31890000
C        2.23750000      -0.82130000       0.09310000
O        2.01980000      -2.14850000       0.54450000
C        2.23850000      -2.24190000       1.94360000
C        1.33350000      -1.26660000       2.68680000
O        1.53040000       0.05920000       2.21430000
H       -0.59890000       2.17380000      -0.54600000
H        0.37090000       1.12050000      -1.58680000
H        2.35160000       1.88690000      -0.22870000
H        1.26600000       2.31300000       1.11620000
H       -0.84030000       0.35570000       1.14170000
H       -0.49700000      -0.78390000      -0.18510000
H        2.05200000      -0.82210000      -0.98520000
H        3.28540000      -0.52450000       0.26980000
H        2.02440000      -3.27550000       2.23230000
H        3.29280000      -2.01980000       2.17820000
H        0.28250000      -1.56780000       2.55450000
H        1.56010000      -1.25710000       3.75740000
