18
Properties=species:S:1:pos:R:3 gdb_69098=T pbc="F F F"
C       -0.03960000       1.52050000      -0.04410000
C       -0.03570000       0.01970000       0.04560000
C       -1.29480000      -0.76920000      -0.28980000
O       -1.05560000      -2.09260000       0.17830000
C       -0.26170000      -1.99510000       1.35440000
C        0.63700000      -0.77990000       1.12680000
N        1.22240000      -0.67960000      -0.22990000
C        1.36140000      -0.23050000       2.23270000
C        1.93870000       0.21490000       3.18900000
H        0.89510000       1.92470000       0.34940000
H       -0.14040000       1.84570000      -1.08540000
H       -0.87200000       1.94520000       0.52690000
H       -2.16550000      -0.31380000       0.20920000
H       -1.50370000      -0.83250000      -1.36330000
H       -0.87600000      -1.83550000       2.25370000
H        0.28740000      -2.93520000       1.46500000
H        1.03900000      -1.55040000      -0.72890000
H        2.46180000       0.61040000       4.02420000
