18
Properties=species:S:1:pos:R:3 gdb_92422=T pbc="F F F"
C       -0.11160000       1.56820000      -0.01790000
N        0.00260000       0.13330000       0.11890000
C       -1.18740000      -0.65500000       0.50030000
C       -0.31280000      -1.52630000       1.42060000
O        0.41300000      -2.57220000       0.77500000
C        1.59240000      -1.73720000       0.60820000
C        0.85120000      -0.50240000       1.15190000
C        1.47620000       0.31600000       2.23600000
O        2.48140000      -0.00450000       2.82370000
H        0.88140000       2.01120000      -0.14770000
H       -0.69460000       1.79600000      -0.91710000
H       -0.60710000       2.07180000       0.83240000
H       -1.92580000      -0.07590000       1.07970000
H       -1.69290000      -1.16510000      -0.32630000
H       -0.69920000      -1.81150000       2.40110000
H        2.41140000      -2.07500000       1.25050000
H        1.90810000      -1.66590000      -0.43600000
H        0.93450000       1.24990000       2.49970000
