23
Properties=species:S:1:pos:R:3 gdb_75140=T pbc="F F F"
C       -0.09220000       1.54470000       0.08250000
C       -0.04940000       0.04700000      -0.02820000
C       -0.03380000      -0.61360000      -1.18560000
C        0.03680000      -2.11490000      -1.26550000
C        0.49720000      -2.74050000       0.06710000
C        0.08450000      -4.20920000       0.15260000
C        2.01770000      -2.60160000       0.25210000
O       -0.20890000      -2.10620000       1.14480000
C       -0.00600000      -0.71450000       1.27260000
H        0.76600000       1.92890000       0.64950000
H       -0.08370000       2.01770000      -0.90310000
H       -0.99140000       1.88120000       0.61470000
H       -0.07770000      -0.06340000      -2.12340000
H       -0.94740000      -2.52150000      -1.53760000
H        0.71970000      -2.41850000      -2.06950000
H        0.50290000      -4.77760000      -0.68380000
H        0.43810000      -4.65420000       1.08730000
H       -1.00520000      -4.29470000       0.12400000
H        2.35430000      -1.57190000       0.10370000
H        2.30280000      -2.92040000       1.25920000
H        2.54760000      -3.23090000      -0.46960000
H        0.94640000      -0.49680000       1.79090000
H       -0.80260000      -0.36000000       1.94000000
