17
Properties=species:S:1:pos:R:3 gdb_131613=T pbc="F F F"
O        0.03740000       1.41820000       0.04420000
C       -0.04720000       0.04370000       0.34130000
C       -1.41520000      -0.51510000      -0.09280000
O       -1.63020000      -0.15680000      -1.45320000
C       -1.49840000      -2.00120000       0.10800000
N       -1.33360000      -2.79990000      -0.94420000
N       -1.41250000      -4.04750000      -0.44580000
C       -1.62130000      -4.06520000       0.89160000
C       -1.68200000      -2.74830000       1.29420000
H       -0.29720000       1.49770000      -0.85910000
H        0.74150000      -0.53740000      -0.16630000
H        0.09090000      -0.07290000       1.42190000
H       -2.19160000      -0.01000000       0.49560000
H       -1.40750000      -0.93540000      -1.98140000
H       -1.33370000      -4.83120000      -1.07110000
H       -1.71320000      -4.99030000       1.43840000
H       -1.84240000      -2.37990000       2.29430000
