19
Properties=species:S:1:pos:R:3 gdb_57507=T pbc="F F F"
C       -0.12290000       1.57630000       0.11080000
C        0.02790000       0.05350000       0.08450000
C        0.65750000      -0.49710000       1.36610000
C       -1.31390000      -0.62310000      -0.19880000
O        0.83150000      -0.35420000      -1.08830000
C        2.09610000       0.01610000      -1.26320000
N        2.79090000       0.74600000      -0.48990000
C        2.61070000      -0.54400000      -2.50840000
N        3.08260000      -0.95470000      -3.48030000
H        0.82800000       2.06800000       0.31400000
H       -0.51520000       1.93750000      -0.84450000
H       -0.83520000       1.85050000       0.89500000
H       -0.02080000      -0.31190000       2.20460000
H        0.80740000      -1.57770000       1.28400000
H        1.61410000      -0.01990000       1.57770000
H       -1.73700000      -0.26340000      -1.14050000
H       -1.19330000      -1.70760000      -0.26640000
H       -2.01950000      -0.40130000       0.60640000
H        3.73040000       0.87730000      -0.85740000
