19
Properties=species:S:1:pos:R:3 gdb_128205=T pbc="F F F"
C        0.06230000       1.41600000       0.05260000
N        0.02900000      -0.03820000       0.07640000
C       -1.22450000      -0.63900000       0.03600000
C       -2.50070000      -0.09920000       0.06330000
C       -3.35230000      -1.23220000       0.06220000
N       -4.74690000      -1.23210000       0.15770000
N       -2.67820000      -2.37300000       0.02270000
N       -1.35920000      -1.98890000       0.03600000
C       -0.31780000      -2.98200000      -0.00100000
H        1.10240000       1.74810000       0.09140000
H       -0.41500000       1.85350000      -0.83790000
H       -0.45110000       1.80440000       0.93720000
H        0.68660000      -0.45040000      -0.57210000
H       -2.77540000       0.94150000       0.09530000
H       -5.18120000      -0.51790000      -0.41190000
H       -5.12550000      -2.14170000      -0.07600000
H        0.01860000      -3.20190000      -1.02380000
H        0.53800000      -2.64020000       0.58880000
H       -0.71220000      -3.89980000       0.43680000
