21
Properties=species:S:1:pos:R:3 gdb_60108=T pbc="F F F"
C        0.03090000       1.52380000      -0.00080000
C       -0.02070000       0.00100000       0.02790000
O        0.70310000      -0.41490000       1.17540000
C       -1.47080000      -0.52590000       0.06430000
C       -1.53030000      -2.01450000      -0.09310000
C       -1.72050000      -2.80940000      -1.34880000
C       -2.62140000      -3.06200000      -0.15180000
C       -1.82080000      -3.78870000       0.92020000
O       -0.75610000      -2.80020000       0.84340000
H        1.07060000       1.85960000       0.04030000
H       -0.42750000       1.91720000      -0.91330000
H       -0.49420000       1.94000000       0.86510000
H        0.45910000      -0.38680000      -0.88810000
H        0.53490000      -1.35720000       1.30660000
H       -1.91650000      -0.22660000       1.02110000
H       -2.05580000      -0.06460000      -0.73920000
H       -2.20020000      -2.28280000      -2.16800000
H       -0.97610000      -3.54410000      -1.64420000
H       -3.69750000      -2.95960000      -0.18430000
H       -2.28750000      -3.77070000       1.91100000
H       -1.46120000      -4.79980000       0.69610000
