16
Properties=species:S:1:pos:R:3 gdb_45240=T pbc="F F F"
O       -0.06190000      -0.08030000      -0.02920000
C       -0.03320000       1.12830000      -0.03240000
N       -1.12410000       1.98350000      -0.09130000
C       -0.70050000       3.33670000       0.26570000
C       -0.10740000       3.32900000       1.71050000
C        1.32970000       2.99830000       1.27050000
O        1.58360000       4.12450000       0.37230000
C        0.67050000       3.43700000      -0.50270000
C        1.16080000       2.06630000       0.00250000
H       -2.03410000       1.62590000       0.16360000
H       -1.45680000       4.08600000       0.04190000
H       -0.12300000       4.30600000       2.19710000
H       -0.58820000       2.58510000       2.34980000
H        2.10540000       2.82760000       2.01420000
H        0.67470000       3.76150000      -1.54170000
H        2.09540000       1.68000000      -0.39350000
