18
Properties=species:S:1:pos:R:3 gdb_82387=T pbc="F F F"
O        0.47850000       0.65210000       0.91140000
C        0.01260000      -0.33120000      -0.00010000
C       -1.50610000      -0.31790000      -0.06580000
N       -2.10110000       0.94960000      -0.53070000
C       -2.24710000      -0.26340000      -1.35300000
C       -1.53160000      -0.30930000      -2.68890000
C       -0.03130000      -0.12670000      -2.61690000
O        0.47000000       1.07160000      -2.02260000
C        0.70380000      -0.16800000      -1.34300000
H        0.15890000       1.49180000       0.55420000
H        0.32930000      -1.29510000       0.41720000
H       -1.98710000      -0.81300000       0.77460000
H       -2.96330000       1.13450000      -0.02560000
H       -3.23190000      -0.72740000      -1.36510000
H       -1.72370000      -1.28640000      -3.15130000
H       -1.95500000       0.44460000      -3.36430000
H        0.50340000      -0.42030000      -3.52210000
H        1.74910000      -0.47900000      -1.34680000
