16
Properties=species:S:1:pos:R:3 gdb_9063=T pbc="F F F"
C        0.19460000       1.39740000       0.12500000
C        0.00350000      -0.11890000       0.02750000
N       -1.37330000      -0.61340000       0.06280000
C       -2.02390000      -0.51860000       1.36540000
C       -3.36700000      -1.10500000       1.31830000
N       -4.43390000      -1.54500000       1.27770000
C        0.66630000      -0.70400000      -1.22110000
O        1.46300000      -0.11950000      -1.90580000
H        1.25300000       1.65080000       0.03130000
H       -0.33710000       1.90430000      -0.68690000
H       -0.17340000       1.78700000       1.07810000
H        0.52610000      -0.60690000       0.86720000
H       -1.93650000      -0.13730000      -0.63540000
H       -1.42850000      -1.08190000       2.09440000
H       -2.12020000       0.50620000       1.76240000
H        0.33980000      -1.74330000      -1.44250000
