15
Properties=species:S:1:pos:R:3 gdb_22210=T pbc="F F F"
N        0.03970000       1.20770000       0.56010000
C       -0.03950000      -0.10560000       0.22860000
N        1.13420000      -0.78710000       0.14940000
H        1.96340000      -0.27320000      -0.10450000
H        1.02740000      -1.71250000      -0.24990000
C       -1.25080000      -0.76290000      -0.02440000
C       -2.64050000      -0.18490000       0.11790000
C       -2.82660000       0.68580000       1.27160000
N       -2.91110000       1.41820000       2.16410000
N       -1.11000000      -2.04610000      -0.47060000
O       -2.14250000      -2.69250000      -0.70030000
H        0.88380000       1.51620000       1.01800000
H       -0.79890000       1.66620000       0.88730000
H       -2.95170000       0.36880000      -0.77860000
H       -3.30320000      -1.05980000       0.17670000
