12
Properties=species:S:1:pos:R:3 gdb_25427=T pbc="F F F"
O       -0.12790000       0.00200000       0.00100000
C       -0.01590000       1.20210000       0.00980000
C        1.25790000       1.93350000       0.00090000
C        1.41940000       3.28990000       0.01040000
O        2.73850000       3.56600000      -0.00280000
C        3.34610000       2.32940000      -0.02040000
N        2.51090000       1.33810000      -0.01890000
C        4.75510000       2.30170000      -0.03730000
C        5.95690000       2.28470000      -0.05160000
H       -0.90480000       1.87200000       0.02600000
H        0.74500000       4.13010000       0.02540000
H        7.01920000       2.26040000      -0.06440000
