20
Properties=species:S:1:pos:R:3 gdb_56762=T pbc="F F F"
C       -0.23080000       1.61180000      -0.14570000
C       -0.01800000       0.08630000      -0.03630000
C       -1.30140000      -0.60440000       0.13370000
N       -2.31360000      -1.15010000       0.25160000
C        0.74580000      -0.46690000      -1.22500000
C        0.10930000      -0.83850000      -2.53570000
C        0.87360000      -1.88960000      -1.77300000
C        2.37970000      -1.69670000      -1.98310000
C        2.25310000      -0.23880000      -1.42850000
H        0.73820000       2.11010000      -0.23740000
H       -0.82870000       1.85290000      -1.02820000
H       -0.74020000       2.00280000       0.73840000
H        0.56720000      -0.11530000       0.87190000
H       -0.96970000      -0.95390000      -2.51340000
H        0.50130000      -0.44120000      -3.46980000
H        0.38760000      -2.79410000      -1.42730000
H        2.99270000      -2.33040000      -1.33910000
H        2.73330000      -1.80110000      -3.01380000
H        2.53010000       0.57800000      -2.10270000
H        2.79360000      -0.10960000      -0.48660000
