20
Properties=species:S:1:pos:R:3 gdb_100636=T pbc="F F F"
C        0.04640000       1.54960000      -0.01750000
C        0.02650000       0.01500000       0.02970000
C        0.81100000      -0.49890000       1.24330000
O        2.12180000       0.04260000       1.16340000
C       -1.42650000      -0.55010000       0.01440000
C       -1.49130000      -2.08430000       0.04690000
O       -2.18060000      -0.11040000       1.14000000
C       -2.09390000      -0.08890000      -1.23160000
N       -2.61850000       0.28260000      -2.19220000
H        1.07790000       1.90160000      -0.04450000
H       -0.47740000       1.93140000      -0.89810000
H       -0.41580000       1.98210000       0.87860000
H        0.52410000      -0.36320000      -0.87220000
H        0.29790000      -0.18600000       2.16470000
H        0.84970000      -1.59670000       1.23830000
H        2.61020000      -0.23940000       1.94200000
H       -1.16000000      -2.44460000       1.02220000
H       -2.52070000      -2.41360000      -0.10660000
H       -0.86070000      -2.51660000      -0.73350000
H       -2.27200000       0.84790000       1.09380000
