19
Properties=species:S:1:pos:R:3 gdb_85373=T pbc="F F F"
C       -0.03700000       1.55860000       0.01440000
C        0.01470000       0.02930000       0.01710000
C        0.64490000      -0.52130000      -1.26950000
C        0.70870000      -2.02960000      -1.28830000
N        0.57950000      -2.66880000      -2.38160000
N        0.93190000      -2.62340000      -0.04160000
C        0.97420000      -2.01930000       1.20920000
O        1.14860000      -2.68500000       2.20610000
C        0.80060000      -0.51090000       1.21930000
H        0.97030000       1.98460000      -0.06100000
H       -0.62190000       1.93150000      -0.83230000
H       -0.49350000       1.94050000       0.93310000
H       -1.01400000      -0.35130000       0.08260000
H        0.10480000      -0.20510000      -2.16360000
H        1.66980000      -0.13300000      -1.35910000
H        0.66830000      -3.67850000      -2.24490000
H        1.02630000      -3.63110000      -0.00800000
H        1.80720000      -0.06880000       1.23060000
H        0.33560000      -0.25050000       2.17320000
