21
Properties=species:S:1:pos:R:3 gdb_82530=T pbc="F F F"
C        0.02690000       1.57690000       0.11880000
C        0.11550000       0.06370000       0.11110000
C        1.34680000      -0.74350000      -0.20570000
C        2.61360000      -0.07170000       0.34440000
C        1.96690000      -0.13400000       1.73960000
C        2.62400000      -0.32970000       3.03100000
O        1.98700000       0.91370000       2.70320000
C        0.71150000      -0.79410000       1.20620000
C       -0.04950000      -1.88360000       1.90810000
H        0.89410000       2.04580000       0.58750000
H       -0.06130000       1.96570000      -0.90200000
H       -0.85680000       1.90450000       0.67680000
H       -0.77860000      -0.40770000      -0.29620000
H        1.34500000      -1.52400000      -0.95720000
H        3.50430000      -0.70100000       0.26970000
H        2.85160000       0.92520000      -0.03800000
H        2.13460000      -0.90960000       3.81310000
H        3.71180000      -0.29810000       3.09320000
H       -0.60690000      -1.48870000       2.76620000
H       -0.77530000      -2.35110000       1.23500000
H        0.61850000      -2.66960000       2.27840000
