23
Properties=species:S:1:pos:R:3 gdb_58284=T pbc="F F F"
C       -0.21590000       1.48340000       0.03130000
C        0.03320000      -0.02420000      -0.04720000
O        0.80200000      -0.36130000      -1.20350000
C        0.76930000      -0.61030000       1.17010000
C        0.69900000      -2.14460000       1.15630000
C        2.22540000      -0.13120000       1.25760000
C        2.87100000      -0.34860000       2.62070000
C        4.38010000      -0.17920000       2.67450000
O        2.22880000      -0.62580000       3.60890000
H        0.72110000       2.04730000       0.05350000
H       -0.78450000       1.82240000      -0.84270000
H       -0.79840000       1.73810000       0.92270000
H       -0.94810000      -0.52550000      -0.09880000
H        0.33520000      -0.03490000      -1.97870000
H        0.25120000      -0.25510000       2.06800000
H        1.20100000      -2.56420000       2.03130000
H       -0.34110000      -2.48730000       1.17290000
H        1.16850000      -2.54280000       0.25150000
H        2.83990000      -0.60180000       0.48170000
H        2.30380000       0.94760000       1.06110000
H        4.69270000       0.74150000       2.17060000
H        4.71910000      -0.17490000       3.71120000
H        4.85920000      -1.00940000       2.14190000
