17
Properties=species:S:1:pos:R:3 gdb_28680=T pbc="F F F"
C        0.30950000       1.38100000       0.18870000
C        0.01890000      -0.06900000      -0.00780000
N       -0.61650000      -0.59930000      -1.03080000
C       -0.63540000      -1.95670000      -0.79730000
C       -0.00960000      -2.25610000       0.38280000
C        0.20190000      -3.54590000       1.12370000
C        1.47240000      -3.59550000       1.84540000
C        2.50670000      -3.59390000       2.45790000
N        0.39800000      -1.03640000       0.88280000
H        1.38650000       1.58030000       0.23870000
H       -0.10310000       1.93440000      -0.65570000
H       -0.14090000       1.76830000       1.11000000
H       -1.10060000      -2.64170000      -1.49070000
H       -0.61360000      -3.71900000       1.84170000
H        0.14710000      -4.37280000       0.40640000
H        3.42710000      -3.62020000       2.98740000
H        0.95590000      -0.91480000       1.71280000
