15
Properties=species:S:1:pos:R:3 gdb_43064=T pbc="F F F"
O       -0.02540000       0.00190000      -0.17090000
C       -0.02730000       1.18440000       0.00950000
C       -1.13700000       2.27130000       0.04510000
O       -1.39360000       2.60750000       1.40710000
C       -0.32070000       3.41810000       1.81940000
C        0.25620000       4.24070000       0.72060000
C        1.08610000       3.10720000       1.35680000
C        1.04390000       2.27310000       0.04160000
C       -0.03910000       3.29950000      -0.46290000
H       -2.07880000       2.11160000      -0.48100000
H       -0.45900000       3.81320000       2.81790000
H        0.37870000       5.31480000       0.70650000
H        1.93800000       3.15790000       2.02430000
H        2.00660000       2.12460000      -0.44720000
H       -0.08440000       3.64270000      -1.49150000
