11
Properties=species:S:1:pos:R:3 gdb_21492=T pbc="F F F"
N       -0.04360000       1.33900000       0.12910000
C        0.05710000      -0.02230000       0.02340000
N        1.18180000      -0.62310000      -0.03690000
C       -1.24720000      -0.72670000       0.02430000
N       -2.42090000      -0.16090000       0.04420000
O       -3.29980000      -1.18190000       0.01760000
N       -2.58520000      -2.38630000      -0.01670000
N       -1.36420000      -2.10520000      -0.01340000
H        0.80610000       1.85240000      -0.04490000
H       -0.90960000       1.78490000      -0.12410000
H        1.05210000      -1.63280000      -0.05270000
