16
Properties=species:S:1:pos:R:3 gdb_7130=T pbc="F F F"
O       -0.29550000       1.42500000      -0.50000000
C       -0.00730000       0.08740000      -0.12470000
C       -1.34140000      -0.62590000       0.03650000
C       -1.20700000      -2.07470000       0.44910000
O       -0.13660000      -2.61390000       0.62210000
C       -2.50600000      -2.86400000       0.62460000
C       -2.48130000      -4.13920000      -0.20800000
O       -3.40750000      -4.52390000      -0.86990000
H        0.53840000       1.88930000      -0.61590000
H        0.59690000      -0.43020000      -0.88320000
H        0.55300000       0.03860000       0.82000000
H       -1.96360000      -0.10400000       0.77640000
H       -1.91390000      -0.57990000      -0.90030000
H       -2.54480000      -3.17380000       1.67800000
H       -3.40400000      -2.28850000       0.39260000
H       -1.52060000      -4.69110000      -0.15200000
