18
Properties=species:S:1:pos:R:3 gdb_69567=T pbc="F F F"
C        0.09810000       1.52720000       0.09610000
C       -0.01480000       0.04040000      -0.04300000
C       -0.89440000      -0.83300000       0.79220000
N        0.55470000      -0.98790000       0.95120000
C        0.96040000      -1.84050000      -0.20200000
C        2.25320000      -2.59850000      -0.25510000
C        0.94110000      -3.34040000      -0.23930000
C        0.51210000      -0.79240000      -1.18900000
O        0.69490000      -0.59140000      -2.35730000
H        1.09190000       1.87540000      -0.20080000
H       -0.63800000       2.02350000      -0.54510000
H       -0.08390000       1.83560000       1.12920000
H       -1.38020000      -0.34840000       1.63510000
H       -1.46270000      -1.64220000       0.33960000
H        2.81250000      -2.54650000      -1.18300000
H        2.84690000      -2.60010000       0.65200000
H        0.65950000      -3.84480000       0.67920000
H        0.60010000      -3.81760000      -1.15180000
