20
Properties=species:S:1:pos:R:3 gdb_18248=T pbc="F F F"
C       -0.11960000       1.61270000       0.02230000
C       -0.08580000       0.08150000      -0.00880000
C        0.72750000      -0.50210000      -1.18070000
C        2.22030000      -0.21400000      -1.14560000
C        2.95740000      -1.31390000      -1.31800000
C        2.10960000      -2.53670000      -1.42690000
C        1.30510000      -2.86020000      -0.18180000
C        0.68460000      -2.03260000      -1.28040000
H        0.87950000       2.03830000       0.16150000
H       -0.52480000       2.01960000      -0.91130000
H       -0.74780000       1.97560000       0.84180000
H        0.31740000      -0.29930000       0.93700000
H       -1.11230000      -0.29970000      -0.07990000
H        0.30470000      -0.07680000      -2.10530000
H        2.61810000       0.78190000      -0.98660000
H        4.04120000      -1.34640000      -1.34110000
H        2.38180000      -3.33890000      -2.10400000
H        0.93480000      -3.87460000      -0.07230000
H        1.60340000      -2.38520000       0.74690000
H       -0.12220000      -2.48470000      -1.84580000
