25
Properties=species:S:1:pos:R:3 gdb_103370=T pbc="F F F"
C       -1.46120000      -0.60400000       0.17050000
C       -0.05340000      -0.02670000      -0.03270000
C        0.68890000      -0.53140000      -1.29160000
C        0.06060000       0.13650000      -2.51950000
C        2.25850000      -0.49720000      -1.13960000
C        2.13090000      -1.81870000      -0.32500000
C        0.97320000      -2.08380000      -1.32840000
C        1.77620000      -2.26440000      -2.63440000
C        2.75890000      -1.05020000      -2.48990000
H       -2.11970000      -0.39950000      -0.67910000
H       -1.43190000      -1.68920000       0.31260000
H       -1.93060000      -0.16850000       1.05840000
H       -0.12470000       1.06650000      -0.10720000
H        0.52960000      -0.21640000       0.87180000
H        0.16030000       1.22610000      -2.44880000
H        0.50890000      -0.17030000      -3.46480000
H       -1.00960000      -0.08630000      -2.58550000
H        2.76630000       0.38290000      -0.73900000
H        2.98260000      -2.50510000      -0.35920000
H        1.81500000      -1.69070000       0.70830000
H        0.18910000      -2.81540000      -1.12610000
H        2.30000000      -3.22450000      -2.65050000
H        1.15870000      -2.21380000      -3.53450000
H        2.67620000      -0.33090000      -3.30830000
H        3.80520000      -1.36400000      -2.43340000
