19
Properties=species:S:1:pos:R:3 gdb_86568=T pbc="F F F"
C       -0.34300000       1.45800000       0.06980000
C        0.05430000      -0.00640000       0.00390000
C        0.80610000      -0.51490000      -1.26550000
O        1.14490000       0.53810000      -2.13460000
C        1.94570000      -1.00800000      -0.32290000
N        1.23690000      -0.38190000       0.80160000
C        1.17030000      -0.78530000       2.11270000
N        2.29180000      -1.47840000       2.55410000
O        0.19810000      -0.57520000       2.81700000
H        0.49340000       2.10440000      -0.20320000
H       -1.17300000       1.65930000      -0.61450000
H       -0.66410000       1.69390000       1.08750000
H       -0.80500000      -0.63880000       0.25640000
H        0.28790000      -1.32090000      -1.79730000
H        1.59590000       0.16820000      -2.89950000
H        2.04370000      -2.09680000      -0.23480000
H        2.92500000      -0.56730000      -0.54620000
H        3.17700000      -1.25490000       2.12430000
H        2.32810000      -1.55350000       3.55950000
