22
Properties=species:S:1:pos:R:3 gdb_6979=T pbc="F F F"
C        0.28440000       1.50090000      -0.03110000
C        0.01510000      -0.01510000      -0.00670000
C       -1.49420000      -0.26750000       0.06660000
C        0.68460000      -0.71460000      -1.21060000
C        2.18110000      -0.87610000      -0.83090000
C        2.23360000      -0.77290000       0.71820000
C        0.76060000      -0.68920000       1.16840000
O        0.54570000       0.02980000       2.37220000
H        1.34920000       1.73160000      -0.13390000
H       -0.23680000       1.96130000      -0.87740000
H       -0.06830000       1.97200000       0.88940000
H       -2.01380000       0.18330000      -0.78600000
H       -1.71640000      -1.34070000       0.06460000
H       -1.91290000       0.16200000       0.98230000
H        0.22690000      -1.70050000      -1.35650000
H        0.54200000      -0.15960000      -2.14290000
H        2.58100000      -1.82640000      -1.19420000
H        2.78940000      -0.09080000      -1.28820000
H        2.75560000      -1.61680000       1.18010000
H        2.74830000       0.13750000       1.04080000
H        0.35810000      -1.71150000       1.27000000
H        0.98950000      -0.43820000       3.08560000
