17
Properties=species:S:1:pos:R:3 gdb_4159=T pbc="F F F"
C       -0.10120000       1.51460000       0.04210000
C        0.31080000       0.04880000      -0.11850000
C        0.76200000      -0.56590000       1.19840000
O       -0.30430000      -0.63720000       2.19340000
C       -0.19650000      -2.07510000       2.31460000
C        0.89640000      -2.06910000       1.27720000
N        1.63420000      -2.89060000       0.66640000
O        1.36680000      -4.20780000       1.07950000
H        0.73840000       2.12730000       0.38860000
H       -0.45000000       1.93030000      -0.90760000
H       -0.90910000       1.60700000       0.77340000
H       -0.52450000      -0.54050000      -0.51370000
H        1.13620000      -0.04790000      -0.83450000
H        1.62540000      -0.01730000       1.60260000
H        0.10850000      -2.39500000       3.31920000
H       -1.12000000      -2.59840000       2.03680000
H        1.98680000      -4.71890000       0.54800000
