19
Properties=species:S:1:pos:R:3 gdb_36773=T pbc="F F F"
C        0.00740000      -1.13130000      -0.26100000
C        0.03430000       0.06240000      -0.13460000
C        0.03230000       1.51090000       0.01900000
O        1.35990000       1.99930000       0.02610000
C        1.42240000       3.40430000       0.16820000
C        2.88010000       3.81500000       0.13150000
C        3.55870000       3.73080000      -1.25210000
O        3.63630000       5.17040000      -1.34970000
C        3.13180000       5.33210000      -0.00990000
H       -0.00970000      -2.18720000      -0.37310000
H       -0.54350000       1.97060000      -0.80280000
H       -0.48400000       1.78430000       0.95540000
H        0.86810000       3.90060000      -0.64790000
H        0.95590000       3.72000000       1.11780000
H        3.42180000       3.32240000       0.94120000
H        4.55250000       3.26650000      -1.25770000
H        2.95510000       3.29050000      -2.05440000
H        2.24230000       5.97550000       0.02280000
H        3.88920000       5.74360000       0.66970000
