23
Properties=species:S:1:pos:R:3 gdb_122197=T pbc="F F F"
C       -0.16600000       1.41050000       0.13590000
C       -0.05350000      -0.10410000       0.10200000
O        0.66220000      -0.53080000       1.24560000
C        0.83970000      -1.93310000       1.32540000
C        1.72750000      -2.20010000       2.53450000
O        2.94180000      -1.49980000       2.38900000
C        0.97690000      -2.05370000       3.89600000
C        0.81470000      -3.59800000       3.93130000
C        1.91080000      -3.70580000       2.83480000
H        0.82630000       1.87070000       0.13060000
H       -0.71910000       1.77040000      -0.73660000
H       -0.69040000       1.73630000       1.03860000
H       -1.05410000      -0.56680000       0.09210000
H        0.46420000      -0.43630000      -0.81320000
H       -0.13110000      -2.44520000       1.42080000
H        1.33640000      -2.30870000       0.41560000
H        2.70530000      -0.62490000       2.05450000
H        1.67080000      -1.69700000       4.66070000
H        0.07650000      -1.43520000       3.90980000
H        1.01650000      -4.09660000       4.88120000
H       -0.16560000      -3.92580000       3.57510000
H        1.75430000      -4.40790000       2.01030000
H        2.90400000      -3.87370000       3.25800000
