17
Properties=species:S:1:pos:R:3 gdb_85764=T pbc="F F F"
C       -0.03770000       1.52340000      -0.05440000
C        0.07280000       0.01810000       0.00590000
O        1.11280000      -0.60110000       0.03080000
N       -1.14160000      -0.66550000       0.02160000
C       -1.38250000      -2.11770000       0.07590000
C       -2.91130000      -1.81510000       0.02310000
N       -3.72450000      -2.37780000       1.07680000
C       -2.49970000      -0.31380000       0.05490000
O       -3.05260000       0.74850000       0.12420000
H        0.96030000       1.95000000       0.04220000
H       -0.48070000       1.82900000      -1.00780000
H       -0.70010000       1.89960000       0.72900000
H       -0.96050000      -2.66440000      -0.76890000
H       -1.05120000      -2.57160000       1.01310000
H       -3.35140000      -2.07490000      -0.94410000
H       -3.42630000      -2.03190000       1.98480000
H       -4.69150000      -2.09060000       0.96170000
