17
Properties=species:S:1:pos:R:3 gdb_85162=T pbc="F F F"
C       -0.45760000       1.63390000      -0.25250000
C       -0.09990000       0.17340000      -0.10580000
O        1.13780000      -0.15100000      -0.85790000
C        1.78780000      -0.56640000       0.26130000
O        2.91460000      -0.93290000       0.37400000
C        0.57290000      -0.36150000       1.18090000
C        0.76550000       0.48250000       2.43710000
C        1.80380000      -0.05040000       3.40020000
O        0.12080000       1.48290000       2.64180000
H        0.36030000       2.28010000       0.07080000
H       -0.68230000       1.84580000      -1.30210000
H       -1.33340000       1.87030000       0.35520000
H       -0.90200000      -0.47330000      -0.47060000
H        0.18560000      -1.33870000       1.49150000
H        1.45990000      -1.00220000       3.82320000
H        2.73910000      -0.26190000       2.87170000
H        1.96250000       0.66630000       4.20640000
