19
Properties=species:S:1:pos:R:3 gdb_62132=T pbc="F F F"
C       -0.04990000       1.54300000       0.13100000
C        0.00360000       0.01830000       0.02510000
C       -1.40570000      -0.59600000      -0.03780000
C       -1.40100000      -2.05190000       0.02080000
C       -1.39070000      -3.25150000       0.08890000
O        0.67350000      -0.40480000      -1.15510000
C        2.07540000      -0.35480000      -1.11220000
C        2.60910000      -1.12380000      -2.31040000
O        3.76240000      -1.11340000      -2.64820000
H        0.95520000       1.97310000       0.15740000
H       -0.58100000       1.96720000      -0.72700000
H       -0.56510000       1.84910000       1.04680000
H        0.52680000      -0.39430000       0.90210000
H       -2.00320000      -0.19280000       0.78870000
H       -1.88200000      -0.25810000      -0.96670000
H       -1.38720000      -4.31190000       0.14040000
H        2.47650000       0.66960000      -1.14260000
H        2.47120000      -0.83220000      -0.19850000
H        1.82900000      -1.71170000      -2.84150000
