20
Properties=species:S:1:pos:R:3 gdb_67777=T pbc="F F F"
C       -0.01080000       1.55870000      -0.03570000
C        0.06210000       0.05240000       0.02080000
C        0.52320000      -0.70300000      -1.22210000
C        0.37270000      -1.98010000      -0.87640000
C       -0.16350000      -1.86640000       0.53810000
C        0.72460000      -0.76060000       1.20470000
C       -0.05100000      -0.34960000       2.44810000
C       -1.47400000      -0.36850000       1.80030000
N       -1.21490000      -0.75300000       0.39430000
H        0.96350000       1.97470000      -0.31340000
H       -0.74100000       1.87590000      -0.78750000
H       -0.29940000       2.00100000       0.92170000
H        0.85790000      -0.25240000      -2.14570000
H        0.54910000      -2.88990000      -1.43080000
H       -0.47140000      -2.76320000       1.07870000
H        1.80980000      -0.87070000       1.27170000
H        0.05790000      -1.06620000       3.26780000
H        0.23910000       0.63530000       2.82720000
H       -2.13980000      -1.10590000       2.25790000
H       -1.97890000       0.60060000       1.83510000
