14
Properties=species:S:1:pos:R:3 gdb_56482=T pbc="F F F"
O       -0.25980000       1.34570000      -0.02170000
C       -0.00550000      -0.03470000      -0.02120000
C        0.74930000      -0.49270000      -1.19620000
C        1.38110000      -0.84940000      -2.15320000
C        0.78550000      -0.41100000       1.23970000
O        1.38760000       0.39510000       1.89600000
O        0.71460000      -1.74020000       1.48680000
C        1.43960000      -2.24700000       2.54860000
N        1.33290000      -3.47370000       2.78780000
H        0.48710000       1.76160000       0.43230000
H       -0.96910000      -0.55720000       0.01360000
H        1.92950000      -1.16700000      -3.00600000
H        2.03140000      -1.48650000       3.05710000
H        1.91490000      -3.72580000       3.58550000
