15
Properties=species:S:1:pos:R:3 gdb_98710=T pbc="F F F"
C        0.22250000       1.53610000      -0.05820000
N        0.83030000       0.24770000      -0.33080000
C        0.17360000      -0.74970000      -0.96430000
O       -0.95300000      -0.69300000      -1.42170000
C        0.96060000      -2.03980000      -1.08740000
O        2.31530000      -2.07330000      -0.63730000
C        1.35850000      -2.84220000       0.09500000
C        1.07340000      -2.40920000       1.44630000
N        0.85700000      -2.09400000       2.53660000
H        0.80020000       2.34640000      -0.51430000
H       -0.77960000       1.52450000      -0.48820000
H        0.14940000       1.71560000       1.01940000
H        1.77490000       0.06280000      -0.03020000
H        0.75240000      -2.58640000      -2.00450000
H        1.45120000      -3.92030000      -0.01910000
