13
Properties=species:S:1:pos:R:3 gdb_3436=T pbc="F F F"
N        0.02200000       1.33020000       0.12980000
C       -0.00960000      -0.03750000       0.01160000
N       -1.08440000      -0.72830000      -0.09130000
C       -0.73640000      -2.15460000      -0.02780000
C        0.78440000      -2.23480000       0.01410000
O        1.40920000      -1.63760000      -1.12750000
C        1.25940000      -0.84510000       0.06470000
H        0.82020000       1.79830000      -0.27180000
H       -0.85990000       1.78320000      -0.06640000
H       -1.17480000      -2.61050000       0.86980000
H       -1.14810000      -2.68390000      -0.89500000
H        1.31970000      -3.06700000       0.46270000
H        2.17480000      -0.50020000       0.53680000
