16
Properties=species:S:1:pos:R:3 gdb_61328=T pbc="F F F"
C       -0.31070000       1.37390000       0.06880000
N        0.04540000      -0.03000000      -0.04910000
C       -0.01850000      -0.86410000       1.13880000
C       -1.37410000      -1.04760000       1.65790000
C       -2.49440000      -1.18880000       2.09190000
C       -3.75500000      -1.35150000       2.57770000
C       -4.87310000      -1.49550000       3.00930000
C        0.38600000      -0.56010000      -1.26190000
O        0.45070000       0.05420000      -2.30330000
H        0.35830000       1.88410000       0.77210000
H       -0.21160000       1.82200000      -0.91950000
H       -1.34120000       1.48550000       0.42260000
H        0.41580000      -1.84070000       0.89240000
H        0.61360000      -0.43200000       1.92840000
H       -5.85710000      -1.62290000       3.38770000
H        0.61190000      -1.64230000      -1.18510000
