14
Properties=species:S:1:pos:R:3 gdb_2920=T pbc="F F F"
C       -0.04210000       1.44140000       0.03000000
N       -0.02960000      -0.00780000       0.14790000
C       -1.10770000      -0.64850000       0.12210000
C       -1.25790000      -2.15430000       0.20560000
O       -2.64310000      -2.34160000       0.46210000
C       -3.28320000      -1.22310000      -0.08770000
O       -2.37530000      -0.12910000       0.01500000
H        0.63720000       1.73740000      -0.77680000
H       -1.03140000       1.87060000      -0.16420000
H        0.35440000       1.87850000       0.95360000
H       -0.95170000      -2.62600000      -0.74060000
H       -0.67660000      -2.58550000       1.02170000
H       -3.53360000      -1.37530000      -1.15080000
H       -4.18420000      -1.00010000       0.48970000
