17
Properties=species:S:1:pos:R:3 gdb_9485=T pbc="F F F"
C        0.00380000       1.59740000      -0.02830000
C        0.07600000       0.08130000       0.00990000
C        1.06360000      -0.68150000      -0.91770000
C        1.34800000      -1.66630000       0.24620000
C        0.77430000      -0.60270000       1.23400000
O        1.76390000       0.26830000       1.74490000
C       -0.09240000      -1.09540000       2.31240000
N       -0.76480000      -1.50130000       3.16120000
H        0.98990000       2.04090000       0.12680000
H       -0.37670000       1.93000000      -0.99980000
H       -0.66770000       1.98350000       0.74530000
H       -0.92380000      -0.35240000      -0.09040000
H        0.65610000      -1.10200000      -1.83840000
H        1.93820000      -0.07350000      -1.16040000
H        0.72240000      -2.56070000       0.20450000
H        2.38360000      -1.95740000       0.43620000
H        2.29820000      -0.21910000       2.38220000
