18
Properties=species:S:1:pos:R:3 gdb_16887=T pbc="F F F"
C        0.00370000       1.51310000      -0.05270000
C       -0.01020000       0.01440000       0.03340000
C       -1.11690000      -0.72690000      -0.07250000
C       -1.07830000      -2.20580000      -0.01530000
C       -0.17160000      -2.94970000      -1.00820000
C        0.24130000      -2.78590000       0.42460000
O        1.25930000      -1.93510000       0.85360000
C        1.32860000      -0.65850000       0.23190000
H        0.66360000       1.86480000      -0.85730000
H       -0.99700000       1.91010000      -0.24350000
H        0.37980000       1.96260000       0.87570000
H       -2.08350000      -0.24680000      -0.20460000
H       -1.99160000      -2.70470000       0.29130000
H       -0.47160000      -3.93930000      -1.33660000
H        0.30450000      -2.34630000      -1.77260000
H        0.23430000      -3.66660000       1.05730000
H        1.86470000      -0.73190000      -0.73130000
H        1.96190000      -0.05320000       0.89100000
