24
Properties=species:S:1:pos:R:3 gdb_63650=T pbc="F F F"
C       -0.05480000       1.50480000      -0.14850000
C        0.04230000      -0.00150000       0.01830000
C       -1.07860000      -0.75800000      -0.67190000
C        1.41190000      -0.64330000       0.03270000
C        0.58350000      -0.60170000       1.29950000
C        1.00370000       0.21780000       2.50010000
N        1.77050000      -0.60300000       3.43600000
C        3.21530000      -0.63530000       3.24320000
C        2.61580000       0.11230000       4.38360000
H        0.78580000       2.03200000       0.30930000
H       -0.06810000       1.77050000      -1.21230000
H       -0.97750000       1.89580000       0.29730000
H       -1.08790000      -0.55100000      -1.74900000
H       -0.97180000      -1.83920000      -0.54120000
H       -2.05800000      -0.46860000      -0.27170000
H        1.54930000      -1.59570000      -0.46920000
H        2.27460000       0.01400000      -0.02520000
H        0.12910000      -1.54510000       1.59180000
H        1.57190000       1.11030000       2.18370000
H        0.11770000       0.57820000       3.03910000
H        3.69540000      -1.59690000       3.40080000
H        3.63680000      -0.04480000       2.43120000
H        2.63890000       1.20020000       4.32950000
H        2.64690000      -0.29240000       5.39130000
