10
Properties=species:S:1:pos:R:3 gdb_130881=T pbc="F F F"
O       -0.01050000      -0.01060000      -0.00050000
C        0.00200000       1.18980000       0.00820000
C        1.25720000       1.99170000       0.00150000
N        1.34310000       3.28920000       0.01050000
C        2.70300000       3.47390000      -0.00180000
N        3.40920000       2.36150000      -0.01750000
O        2.44960000       1.37610000      -0.01520000
C        3.32630000       4.75660000       0.00140000
N        3.82060000       5.80040000       0.00410000
H       -0.90430000       1.82230000       0.02240000
