19
Properties=species:S:1:pos:R:3 gdb_111471=T pbc="F F F"
C       -0.17370000       1.59810000       0.01760000
C       -0.12720000       0.09570000      -0.27930000
N       -1.38530000      -0.58750000      -0.06020000
C       -2.00380000      -0.77470000       1.21680000
C       -3.24880000       0.03570000       1.53190000
C       -3.36410000      -1.34620000       0.91000000
N       -3.38270000      -1.47360000      -0.51610000
C       -2.25280000      -0.89290000      -1.09610000
O       -2.07040000      -0.69410000      -2.27870000
H        0.80920000       2.04790000      -0.15560000
H       -0.89770000       2.09690000      -0.63350000
H       -0.45440000       1.79210000       1.05760000
H        0.12570000      -0.07420000      -1.32880000
H        0.64740000      -0.38450000       0.33310000
H       -1.37230000      -1.15520000       2.01270000
H       -3.52930000       0.11990000       2.57650000
H       -3.46710000       0.90190000       0.91710000
H       -3.78840000      -2.16460000       1.48030000
H       -4.23750000      -1.43750000      -1.04750000
