21
Properties=species:S:1:pos:R:3 gdb_63078=T pbc="F F F"
C       -0.08900000       1.52880000       0.04670000
C        0.04700000       0.01920000       0.00250000
C       -1.17510000      -0.70130000       0.55060000
C        0.73170000      -0.69070000      -1.16430000
C        1.66090000       0.07500000      -2.10390000
C        2.79950000       0.52070000      -1.20780000
C        2.63240000       0.11510000       0.05330000
C        1.37660000      -0.67530000       0.22580000
O        1.39680000      -1.76060000       1.10540000
H        0.80710000       2.04530000      -0.30160000
H       -0.93180000       1.85330000      -0.57510000
H       -0.28950000       1.86480000       1.07070000
H       -2.06280000      -0.44570000      -0.03990000
H       -1.04760000      -1.78480000       0.53760000
H       -1.36750000      -0.40510000       1.58790000
H        0.24730000      -1.59100000      -1.52650000
H        2.01660000      -0.55460000      -2.93030000
H        1.16480000       0.93620000      -2.57220000
H        3.61380000       1.14090000      -1.56630000
H        3.29700000       0.31840000       0.88560000
H        2.06020000      -2.38280000       0.78640000
