16
Properties=species:S:1:pos:R:3 gdb_6725=T pbc="F F F"
C        0.13290000       1.02530000       0.04590000
N       -0.74890000       0.22500000      -0.77740000
C       -1.42150000      -0.66510000      -0.20330000
O       -2.28760000      -1.42570000      -0.92160000
C       -2.95350000      -2.45080000      -0.22550000
C       -2.02650000      -3.63920000       0.07970000
N       -2.66280000      -4.84130000       0.16920000
O       -0.84110000      -3.49020000       0.28620000
H        1.16430000       0.91580000      -0.30790000
H       -0.12810000       2.08500000      -0.05680000
H        0.10760000       0.76460000       1.11670000
H       -1.39760000      -0.89380000       0.87030000
H       -3.36450000      -2.09160000       0.73020000
H       -3.79510000      -2.75090000      -0.85610000
H       -3.60010000      -4.97610000      -0.16820000
H       -2.10150000      -5.65850000       0.34970000
