17
Properties=species:S:1:pos:R:3 gdb_48119=T pbc="F F F"
O       -0.88600000       1.64890000       0.41360000
C        0.12290000       1.00830000       0.27630000
C        1.50320000       1.63370000       0.01300000
O        2.43720000       0.87760000      -0.12910000
C        1.57150000       3.14060000      -0.02310000
C        1.44270000       3.74350000       1.42340000
C        2.46660000       4.85130000       1.41770000
C        3.23590000       4.83470000       0.33240000
C        2.88820000       3.70780000      -0.60760000
H        0.15620000      -0.10100000       0.31850000
H        0.70750000       3.49030000      -0.59550000
H        0.42300000       4.08630000       1.62120000
H        1.67580000       3.00380000       2.20280000
H        2.56100000       5.54520000       2.24560000
H        4.05340000       5.51920000       0.13560000
H        3.67000000       2.93820000      -0.61840000
H        2.76200000       4.04070000      -1.64390000
