17
Properties=species:S:1:pos:R:3 gdb_81984=T pbc="F F F"
C       -0.14090000       1.57150000      -0.01240000
C       -0.03000000       0.04760000      -0.00960000
C       -1.31880000      -0.58720000       0.23170000
N       -2.33620000      -1.10170000       0.42730000
C        0.70630000      -0.62970000      -1.18760000
N        2.09490000      -0.12020000      -1.14860000
C        1.70310000      -1.26950000      -0.29380000
C        1.10250000      -0.60710000       0.95100000
O        1.92430000       0.26390000       1.65340000
H        0.81640000       2.00930000      -0.29920000
H       -0.90350000       1.90460000      -0.72220000
H       -0.41030000       1.93640000       0.98180000
H        0.26200000      -0.99330000      -2.10510000
H        2.58600000      -0.48240000      -1.96340000
H        2.20890000      -2.22340000      -0.36950000
H        0.65770000      -1.30540000       1.66040000
H        2.46360000       0.71500000       0.98860000
