15
Properties=species:S:1:pos:R:3 gdb_44974=T pbc="F F F"
N        0.06010000       1.01790000      -0.78070000
C        0.02460000      -0.01500000      -0.06530000
C       -1.23940000      -0.75600000       0.34740000
C       -0.72800000      -2.01550000       1.03250000
C        0.19770000      -2.91310000       0.20640000
C        0.78520000      -1.85250000       1.07670000
O        1.13480000      -0.63850000       0.46540000
C       -1.45990000      -2.57890000       2.12700000
N       -2.05190000      -3.03670000       3.00930000
H        1.01970000       1.33470000      -0.92510000
H       -1.81600000      -0.13960000       1.04250000
H       -1.86940000      -0.95120000      -0.52270000
H        0.29300000      -3.94150000       0.53410000
H        0.20890000      -2.76110000      -0.86790000
H        1.38300000      -2.08060000       1.94930000
