16
Properties=species:S:1:pos:R:3 gdb_36667=T pbc="F F F"
C       -0.12580000      -1.18740000       0.30550000
C       -0.03150000       0.00520000       0.18970000
C        0.04270000       1.43220000       0.03120000
O        0.78160000       2.17630000       1.01720000
C        1.30310000       2.13090000      -0.30990000
C        2.61550000       1.41140000      -0.49610000
C        3.75610000       2.17140000       0.21510000
C        5.05110000       1.51880000       0.04350000
N        6.06840000       0.99170000      -0.10610000
H       -0.20550000      -2.24130000       0.41470000
H       -0.89000000       1.90960000      -0.26780000
H        1.20300000       3.07390000      -0.85240000
H        2.54380000       0.39770000      -0.09490000
H        2.83440000       1.32830000      -1.56610000
H        3.83100000       3.19730000      -0.16450000
H        3.53070000       2.24340000       1.28430000
