15
Properties=species:S:1:pos:R:3 gdb_34468=T pbc="F F F"
N        0.05910000      -1.07170000       0.00730000
C        0.00840000       0.08450000      -0.00630000
C       -0.05190000       1.51320000      -0.02250000
N       -1.14370000       2.16240000       0.69890000
C       -1.35460000       3.46670000       0.02440000
C       -0.04910000       3.67680000      -0.73040000
O        1.03170000       3.64670000       0.26410000
C        1.27630000       2.29560000      -0.07500000
C        0.37380000       2.28900000      -1.26670000
H       -1.97490000       1.58470000       0.64780000
H       -2.20490000       3.45830000      -0.67320000
H       -1.50980000       4.26000000       0.76160000
H        0.01090000       4.55070000      -1.37790000
H        2.24810000       1.86330000       0.12990000
H        0.46390000       1.92820000      -2.28140000
