15
Properties=species:S:1:pos:R:3 gdb_6360=T pbc="F F F"
N        0.42100000       0.29700000      -0.92150000
C        0.03670000       0.12220000       0.37680000
N        0.72580000       0.16670000       1.45170000
N       -1.32920000      -0.20790000       0.55300000
C       -2.34430000      -0.21310000      -0.34960000
O       -2.23130000       0.06070000      -1.53940000
C       -3.71710000      -0.60090000       0.20420000
O       -4.67960000      -0.54860000      -0.80330000
H        1.30970000       0.73910000      -1.08040000
H       -0.30670000       0.40470000      -1.61650000
H        1.70020000       0.38910000       1.25960000
H       -1.53850000      -0.40870000       1.52090000
H       -3.64410000      -1.61210000       0.63680000
H       -3.96980000       0.08300000       1.03030000
H       -4.19330000      -0.29640000      -1.60510000
