14
Properties=species:S:1:pos:R:3 gdb_49360=T pbc="F F F"
N       -0.31230000       1.00400000       0.46550000
C       -0.23700000      -0.21350000       0.13460000
N       -1.32430000      -0.85070000      -0.48490000
C       -1.95080000      -2.07540000      -0.05910000
C       -1.61380000      -2.72520000       1.25120000
O       -0.88430000      -2.24070000       2.07670000
C       -2.68970000      -0.73110000      -0.05160000
C       -3.05290000      -0.11760000       1.20660000
N       -3.43330000       0.35950000       2.18760000
H        0.58030000       1.33550000       0.82610000
H        0.64070000      -0.86210000       0.19000000
H       -2.21910000      -2.76990000      -0.85400000
H       -2.09280000      -3.71610000       1.39850000
H       -3.41670000      -0.56060000      -0.84170000
