17
Properties=species:S:1:pos:R:3 gdb_59015=T pbc="F F F"
C        0.02560000       1.54410000       0.48060000
C       -0.07330000       0.11890000      -0.04880000
O        0.77600000      -0.79790000       0.64020000
C       -1.49600000      -0.39730000      -0.05470000
N       -2.55720000       0.31630000      -0.11010000
C       -3.67700000      -0.62780000      -0.13820000
C       -3.06880000      -2.03720000      -0.06190000
O       -3.60050000      -3.11820000      -0.03230000
N       -1.70350000      -1.77340000      -0.03020000
H        1.05610000       1.89870000       0.40350000
H       -0.63390000       2.20490000      -0.08550000
H       -0.28960000       1.58860000       1.52900000
H        0.28520000       0.09030000      -1.08620000
H        0.64140000      -0.66850000       1.58610000
H       -4.36180000      -0.45700000       0.69960000
H       -4.26410000      -0.51510000      -1.05670000
H       -0.97160000      -2.45770000       0.07430000
