22
Properties=species:S:1:pos:R:3 gdb_58986=T pbc="F F F"
C       -0.13350000       1.50030000       0.05140000
C        0.04520000      -0.03070000       0.01840000
C        0.68760000      -0.50660000      -1.28700000
C        0.82570000      -0.48580000       1.21860000
N        1.96750000      -1.04200000       1.22630000
C        2.32810000      -1.28130000       2.63460000
C        3.67080000      -0.64010000       2.98190000
C        1.12640000      -0.70080000       3.43220000
O        0.20850000      -0.25180000       2.41540000
H        0.83470000       2.00310000      -0.04590000
H       -0.76720000       1.82440000      -0.77940000
H       -0.59570000       1.82390000       0.98690000
H       -0.95260000      -0.48020000       0.11530000
H        1.69010000      -0.08520000      -1.40090000
H        0.78560000      -1.59450000      -1.30740000
H        0.07920000      -0.19340000      -2.14100000
H        2.40770000      -2.36480000       2.78870000
H        3.62900000       0.44400000       2.83190000
H        3.93770000      -0.83380000       4.02650000
H        4.46120000      -1.04140000       2.34250000
H        0.61470000      -1.43670000       4.05840000
H        1.40420000       0.15900000       4.05200000
