12
Properties=species:S:1:pos:R:3 gdb_24802=T pbc="F F F"
O        0.07550000      -0.06260000       0.00200000
C        0.01050000       1.14490000       0.00900000
C       -1.25230000       1.89000000       0.03030000
C       -1.25390000       3.23770000       0.03720000
O       -0.07590000       3.94080000       0.02440000
C        1.06830000       3.20940000       0.00490000
N        1.18820000       1.94710000      -0.00320000
C       -2.40270000       4.06630000       0.05730000
C       -3.38550000       4.75910000       0.07450000
H       -2.18460000       1.34180000       0.04040000
H        1.92700000       3.87550000      -0.00360000
H       -4.25530000       5.37000000       0.08980000
