16
Properties=species:S:1:pos:R:3 gdb_127276=T pbc="F F F"
C       -0.16330000       1.37280000      -0.00870000
N        0.01290000      -0.06470000      -0.01570000
C        0.08290000      -0.88240000      -1.09620000
C        0.34750000      -2.14270000      -0.59940000
O        0.54050000      -3.26180000      -1.36510000
C       -0.08150000      -4.40430000      -0.97190000
N        0.18940000      -5.48630000      -1.55580000
C        0.42560000      -1.98630000       0.79910000
N        0.21620000      -0.71560000       1.14260000
H        0.78480000       1.88990000      -0.19050000
H       -0.88270000       1.66230000      -0.77820000
H       -0.54300000       1.65720000       0.97240000
H       -0.04930000      -0.52960000      -2.10550000
H       -0.79480000      -4.24150000      -0.15510000
H       -0.37220000      -6.24060000      -1.16630000
H        0.62300000      -2.73100000       1.55510000
