13
Properties=species:S:1:pos:R:3 gdb_125341=T pbc="F F F"
C        0.00510000       1.46020000       0.04900000
C        0.01700000      -0.02840000      -0.03570000
C       -0.11520000      -0.80250000      -1.16780000
N       -0.03320000      -2.09980000      -0.67820000
N       -0.06060000      -3.39060000      -1.04850000
N        0.08080000      -4.10460000      -0.02150000
O        0.21520000      -3.25780000       1.13820000
C        0.13710000      -2.00840000       0.67300000
N        0.17670000      -0.79590000       1.12840000
H        0.94230000       1.82910000       0.47820000
H       -0.12730000       1.91050000      -0.93760000
H       -0.80520000       1.80260000       0.70080000
H       -0.25090000      -0.57260000      -2.20860000
