15
Properties=species:S:1:pos:R:3 gdb_69222=T pbc="F F F"
C       -0.05250000       1.54370000       0.00790000
C        0.09410000       0.04950000       0.01340000
N       -0.76410000      -0.82550000       0.84980000
C        0.70430000      -0.77990000       1.08580000
C        1.36590000      -1.94050000       0.40800000
O        2.07010000      -2.79230000       0.84870000
O        1.04810000      -1.87360000      -0.94510000
C        0.42080000      -0.67470000      -1.25670000
N        0.20290000      -0.26220000      -2.42210000
H        0.84650000       2.02110000      -0.39120000
H       -0.89340000       1.83720000      -0.62610000
H       -0.22570000       1.91990000       1.02080000
H       -1.20830000      -0.24200000       1.55860000
H        1.11080000      -0.39780000       2.01280000
H        0.52980000      -0.93060000      -3.12170000
