14
Properties=species:S:1:pos:R:3 gdb_31429=T pbc="F F F"
C       -0.03660000       1.37530000      -0.02160000
O        0.03180000      -0.05650000       0.04770000
C        0.65430000      -0.57640000       1.09080000
N        1.17530000       0.17900000       2.00270000
C        1.80790000      -0.41490000       3.05980000
N        2.35600000       0.19820000       4.01360000
O        1.83470000      -1.85720000       3.05780000
C        1.25360000      -2.49450000       2.04750000
N        0.65590000      -1.96440000       1.04740000
H        0.96700000       1.80530000      -0.05270000
H       -0.58050000       1.59100000      -0.94080000
H       -0.56450000       1.77570000       0.84670000
H        2.76070000      -0.45570000       4.68090000
H        1.33230000      -3.57480000       2.14560000
