19
Properties=species:S:1:pos:R:3 gdb_88563=T pbc="F F F"
O       -0.13550000       1.42790000       0.24010000
C       -0.05660000       0.05420000       0.01250000
C       -0.37670000      -0.84960000       1.16080000
C       -1.34110000      -0.75310000      -0.00850000
C       -2.59070000       0.03280000       0.09390000
C       -3.36100000       0.43410000       1.31190000
C       -4.07690000      -0.26150000       0.16970000
C       -4.21260000       0.71960000      -0.98560000
O       -2.79140000       1.02460000      -0.94420000
H       -0.75510000       1.79430000      -0.40360000
H        0.73070000      -0.25330000      -0.67500000
H        0.18800000      -1.76710000       1.28100000
H       -0.67160000      -0.36120000       2.08250000
H       -1.36670000      -1.58720000      -0.70390000
H       -3.20170000      -0.18680000       2.18750000
H       -3.53650000       1.48740000       1.51490000
H       -4.60450000      -1.19900000       0.28040000
H       -4.47460000       0.25230000      -1.94150000
H       -4.83420000       1.60850000      -0.82540000
