23
Properties=species:S:1:pos:R:3 gdb_58991=T pbc="F F F"
C       -0.00380000       1.55240000       0.02850000
C        0.05380000       0.01240000       0.02550000
C        0.70800000      -0.50590000      -1.27000000
C        0.75220000      -0.51340000       1.24180000
C        0.32000000      -1.29270000       2.24010000
C        1.54730000      -1.44230000       3.15000000
C        2.06270000       0.03840000       3.16770000
C        2.22520000      -0.25280000       1.63640000
C        2.66140000      -1.69260000       2.07560000
H        1.00260000       1.98460000       0.00490000
H       -0.54460000       1.92140000      -0.84940000
H       -0.50870000       1.92630000       0.92410000
H       -0.97770000      -0.36320000       0.05550000
H        1.74600000      -0.16510000      -1.35110000
H        0.71040000      -1.59950000      -1.30010000
H        0.16820000      -0.13970000      -2.14970000
H       -0.65660000      -1.72980000       2.39760000
H        1.46040000      -2.04330000       4.05500000
H        1.35190000       0.81470000       3.46110000
H        3.01720000       0.16390000       3.68980000
H        2.84090000       0.36990000       0.98690000
H        3.67280000      -1.73150000       2.49400000
H        2.50090000      -2.50720000       1.36520000
