17
Properties=species:S:1:pos:R:3 gdb_30788=T pbc="F F F"
C        0.66780000       0.90030000       0.04630000
C       -0.16200000      -0.32040000       0.24290000
C       -0.65810000      -1.18740000      -0.83690000
C       -0.44610000      -1.12130000      -2.15030000
N        2.22940000       0.95070000      -3.32290000
H        1.84820000       1.12530000      -4.24930000
H        2.70300000       1.80860000      -3.05180000
H        2.96070000       0.25570000      -3.44910000
O       -1.41090000      -2.14890000      -0.22340000
C       -1.35820000      -1.89360000       1.15350000
O       -1.92160000      -2.58240000       1.94300000
N       -0.56510000      -0.74300000       1.39490000
H        1.38550000       0.77070000      -0.76810000
H        0.01860000       1.73900000      -0.23350000
H        1.17630000       1.15840000       0.97620000
H       -0.88440000      -1.84930000      -2.82190000
H        0.19240000      -0.34530000      -2.55740000
