22
Properties=species:S:1:pos:R:3 gdb_82204=T pbc="F F F"
C        0.07340000       1.59840000       0.00090000
C        0.07660000       0.06550000       0.02530000
C        0.75840000      -0.60480000      -1.17430000
C        2.20780000      -0.42910000      -1.44800000
N        1.73700000      -1.61420000      -0.71690000
C        1.76360000      -1.54760000       0.74560000
C        2.19900000      -0.30830000       1.49720000
C        0.72850000      -0.57810000       1.26750000
C       -0.16640000      -0.87390000       2.44890000
H        1.08980000       2.00320000       0.00790000
H       -0.42850000       1.97490000      -0.89630000
H       -0.45360000       2.00370000       0.87120000
H       -0.96940000      -0.26740000       0.01640000
H        0.11210000      -0.90800000      -1.99540000
H        2.58860000      -0.64190000      -2.44380000
H        2.76680000       0.33760000      -0.92330000
H        1.92630000      -2.51340000       1.21250000
H        2.56940000      -0.46880000       2.50550000
H        2.69800000       0.50720000       0.98850000
H       -0.56620000       0.04810000       2.88870000
H       -1.01830000      -1.49960000       2.15760000
H        0.38070000      -1.39980000       3.23770000
