16
Properties=species:S:1:pos:R:3 gdb_41643=T pbc="F F F"
C       -0.10230000       1.56850000       0.01580000
O        1.24280000       2.14080000       0.00730000
C        2.07580000       1.64140000      -1.02010000
C        3.04710000       0.42170000      -0.86710000
C        2.25170000      -0.85890000      -1.03020000
N        2.68150000      -0.09760000      -2.23930000
C        1.38850000       0.71620000      -2.03170000
C        0.86720000      -0.28930000      -1.01350000
C        0.03860000       0.06560000      -0.03030000
H       -0.55590000       1.92130000       0.94270000
H       -0.67270000       1.97880000      -0.82730000
H        2.61250000       2.48480000      -1.46320000
H        4.07640000       0.42860000      -0.52510000
H        2.65800000      -1.82870000      -0.76800000
H        0.81520000       1.06720000      -2.88650000
H       -0.11320000      -0.53140000       0.86280000
