18
Properties=species:S:1:pos:R:3 gdb_33015=T pbc="F F F"
C       -0.30200000       1.44040000      -0.49610000
O       -0.35280000       0.04190000      -0.65200000
C       -0.96670000      -0.60770000       0.43150000
C       -0.99110000      -2.09950000       0.20680000
C       -0.46010000      -2.68620000      -0.93850000
C       -0.52120000      -4.07170000      -1.07200000
N       -1.06100000      -4.88920000      -0.16550000
C       -1.56790000      -4.31500000       0.93060000
C       -1.55830000      -2.94490000       1.16170000
H        0.18860000       1.84900000      -1.38220000
H       -1.30920000       1.87770000      -0.41190000
H        0.27420000       1.73000000       0.39670000
H       -0.43050000      -0.38560000       1.37150000
H       -1.99900000      -0.23930000       0.57050000
H       -0.00990000      -2.07170000      -1.70680000
H       -0.11140000      -4.54790000      -1.96020000
H       -2.00600000      -4.98770000       1.66450000
H       -1.98840000      -2.54550000       2.07560000
