21
Properties=species:S:1:pos:R:3 gdb_123218=T pbc="F F F"
O       -0.06780000       1.44770000      -0.14580000
C        0.00210000       0.04160000      -0.02260000
C       -1.38530000      -0.57860000       0.03180000
O       -2.03820000      -0.22050000      -1.17290000
C       -3.39500000      -0.60570000      -1.22710000
C       -3.97400000      -0.15570000      -2.56150000
C       -5.45800000      -0.54570000      -2.70500000
C       -6.03280000      -0.12320000      -3.97610000
C       -6.48470000       0.23540000      -5.03030000
H       -0.68400000       1.61400000      -0.86910000
H        0.56270000      -0.40950000      -0.85710000
H        0.54270000      -0.17870000       0.90380000
H       -1.32230000      -1.67450000       0.13510000
H       -1.94030000      -0.18280000       0.89760000
H       -3.48410000      -1.70050000      -1.11870000
H       -3.95460000      -0.15370000      -0.38980000
H       -3.86810000       0.93000000      -2.65380000
H       -3.39420000      -0.60290000      -3.37500000
H       -5.56410000      -1.63380000      -2.60170000
H       -6.03580000      -0.10610000      -1.88100000
H       -6.89480000       0.54750000      -5.95850000
