21
Properties=species:S:1:pos:R:3 gdb_33163=T pbc="F F F"
C       -0.02450000       1.53910000       0.10050000
C       -0.01400000       0.01090000       0.02070000
C        0.70270000      -0.49840000      -1.23640000
N        0.75240000      -1.94850000      -1.31930000
C        1.76690000      -2.73770000      -0.82350000
C        1.40010000      -4.05430000      -0.95870000
C        0.11670000      -4.07390000      -1.57260000
C       -0.25920000      -2.76380000      -1.78080000
N       -1.44360000      -2.18180000      -2.29300000
H        0.99250000       1.94640000       0.13260000
H       -0.52950000       1.97900000      -0.76690000
H       -0.54750000       1.88370000       0.99730000
H        0.47850000      -0.41290000       0.90370000
H       -1.03860000      -0.37510000       0.01110000
H        0.19820000      -0.11270000      -2.12680000
H        1.73370000      -0.12900000      -1.26260000
H        2.66330000      -2.28620000      -0.42820000
H        1.99310000      -4.90910000      -0.67140000
H       -0.46170000      -4.94300000      -1.84850000
H       -2.22240000      -2.81970000      -2.18290000
H       -1.36930000      -1.96760000      -3.28430000
