21
Properties=species:S:1:pos:R:3 gdb_96314=T pbc="F F F"
C        0.22740000       1.56630000      -0.00600000
C       -0.04100000       0.08170000       0.02260000
C        0.00680000      -0.63750000      -1.10430000
C       -0.11920000      -2.14020000      -1.28490000
O        1.11550000      -2.80600000      -1.01230000
C       -1.24030000      -2.81010000      -0.49030000
O       -0.98760000      -2.79690000       0.90520000
C       -1.32810000      -1.58340000       1.55290000
C       -0.28360000      -0.47630000       1.41400000
H        1.07040000       1.82370000       0.64910000
H        0.45980000       1.92160000      -1.01280000
H       -0.63650000       2.13110000       0.36820000
H        0.24660000      -0.10070000      -2.02010000
H       -0.32000000      -2.33270000      -2.34570000
H        1.15880000      -2.88590000      -0.05120000
H       -2.21120000      -2.34410000      -0.71650000
H       -1.28100000      -3.86650000      -0.77500000
H       -2.30310000      -1.22610000       1.18630000
H       -1.44080000      -1.83470000       2.61320000
H        0.66930000      -0.83980000       1.82690000
H       -0.59470000       0.34200000       2.07610000
