14
Properties=species:S:1:pos:R:3 gdb_5772=T pbc="F F F"
C        0.42610000       1.54800000       0.17380000
N        1.10200000       0.36520000      -0.37080000
C       -0.28100000       0.24320000       0.15930000
C       -0.44820000      -0.53750000       1.39530000
N        0.05830000      -0.32830000       2.56990000
C       -0.40980000      -1.38070000       3.34400000
C       -1.19610000      -2.17600000       2.58270000
O       -1.23160000      -1.64660000       1.32330000
H        0.82890000       1.90040000       1.11760000
H        0.07360000       2.32080000      -0.50400000
H        1.06300000       0.37850000      -1.38750000
H       -1.08330000       0.10060000      -0.55850000
H       -0.15060000      -1.48030000       4.38600000
H       -1.76770000      -3.07300000       2.74610000
