13
Properties=species:S:1:pos:R:3 gdb_5188=T pbc="F F F"
N       -0.10910000       1.30250000       0.00980000
C       -0.00540000       0.04560000       0.00250000
O       -1.14800000      -0.69350000       0.00730000
C       -1.05620000      -2.05150000      -0.00040000
C       -2.13710000      -2.89370000       0.00240000
N       -1.57490000      -4.15720000      -0.00760000
C       -0.22770000      -4.00990000      -0.01570000
N        0.12170000      -2.73860000      -0.01150000
H        0.82070000       1.71780000       0.00460000
H        0.90000000      -0.56240000      -0.00780000
H       -3.19780000      -2.71950000       0.01010000
H       -2.08080000      -5.02660000      -0.00860000
H        0.45150000      -4.84820000      -0.02440000
