17
Properties=species:S:1:pos:R:3 gdb_28513=T pbc="F F F"
N        0.01200000       1.42290000      -0.12900000
C        0.00540000       0.01700000      -0.06090000
C       -1.19010000      -0.70050000       0.00690000
C       -1.18060000      -2.09360000       0.00040000
C        0.00530000      -2.82170000      -0.06650000
N        0.03700000      -4.22640000      -0.13180000
C        1.20380000      -2.09190000      -0.12770000
O        2.35840000      -2.83250000      -0.17780000
C        1.20510000      -0.70320000      -0.12740000
H        0.84290000       1.84290000       0.26580000
H       -0.81110000       1.84350000       0.28070000
H       -2.13540000      -0.16940000       0.05980000
H       -2.12220000      -2.63310000       0.04960000
H       -0.71250000      -4.66610000       0.38490000
H        0.93210000      -4.60300000       0.15000000
H        3.11320000      -2.23690000      -0.20230000
H        2.15280000      -0.17120000      -0.18250000
