13
Properties=species:S:1:pos:R:3 gdb_28548=T pbc="F F F"
O        0.01190000       1.38820000      -0.08410000
C        0.04140000       0.02800000      -0.06400000
C       -0.04410000      -0.72360000      -1.22300000
N       -0.01800000      -2.06360000      -1.23130000
C        0.09630000      -2.64330000      -0.04940000
O        0.12380000      -3.98770000      -0.04460000
N        0.18780000      -2.03260000       1.14170000
C        0.15920000      -0.71280000       1.11920000
O        0.24680000      -0.02720000       2.27870000
H        0.08790000       1.70280000       0.82440000
H       -0.13740000      -0.22130000      -2.18210000
H        0.20950000      -4.26010000       0.87760000
H        0.32210000      -0.67590000       2.99160000
