22
Properties=species:S:1:pos:R:3 gdb_110028=T pbc="F F F"
C       -0.05280000       1.45800000       0.42320000
C        0.07960000      -0.04370000       0.17080000
C        0.66940000      -0.36210000      -1.21690000
N        2.05910000       0.09590000      -1.36970000
C        2.33530000       0.69860000      -2.66930000
C        2.91500000      -1.07610000      -1.08460000
C        2.15260000      -2.30920000      -1.59760000
C        0.69030000      -1.88720000      -1.44740000
O       -0.27730000      -2.60240000      -1.47750000
H        0.91860000       1.94890000       0.31610000
H       -0.74610000       1.91890000      -0.28970000
H       -0.43010000       1.65690000       1.43090000
H        0.71730000      -0.49420000       0.94210000
H       -0.89380000      -0.54170000       0.23970000
H        0.03010000       0.09920000      -1.97890000
H        1.68940000       1.56980000      -2.81120000
H        3.37230000       1.04700000      -2.69630000
H        2.18220000       0.02320000      -3.53200000
H        3.89560000      -0.94440000      -1.54650000
H        3.07310000      -1.15400000      -0.00220000
H        2.34550000      -2.48930000      -2.66250000
H        2.35230000      -3.24240000      -1.06660000
