17
Properties=species:S:1:pos:R:3 gdb_2417=T pbc="F F F"
C       -0.00650000       1.47860000      -0.01680000
C        0.02770000      -0.02490000      -0.05820000
C        0.56950000      -0.94250000      -1.17720000
C        0.06570000      -1.91870000      -0.09970000
C        0.54320000      -0.99640000       1.07250000
C       -0.83190000      -1.04300000       1.76710000
C       -1.15970000      -1.01280000       0.26140000
H        1.00380000       1.89730000      -0.08750000
H       -0.59230000       1.88200000      -0.85050000
H       -0.45500000       1.84350000       0.91400000
H        0.02590000      -0.93160000      -2.12880000
H        1.65060000      -0.91600000      -1.35490000
H        0.07440000      -3.00960000      -0.09590000
H        1.54210000      -0.98770000       1.51410000
H       -1.07900000      -1.96450000       2.30440000
H       -1.12240000      -0.16910000       2.35930000
H       -2.13200000      -1.02310000      -0.23590000
