15
Properties=species:S:1:pos:R:3 gdb_27821=T pbc="F F F"
C        0.04610000       1.45050000       0.00280000
C       -0.05360000      -0.03940000       0.00150000
N       -1.18400000      -0.64940000      -0.08590000
C       -1.08000000      -2.03800000      -0.07150000
N       -2.26570000      -2.66840000      -0.16270000
N        0.01910000      -2.73520000       0.01900000
C        1.20140000      -2.05370000       0.11020000
N        2.37870000      -2.50330000       0.20590000
O        1.13420000      -0.63360000       0.09870000
H        0.67250000       1.78040000      -0.83170000
H       -0.94770000       1.88810000      -0.07870000
H        0.53210000       1.78820000       0.92320000
H       -3.10740000      -2.12620000      -0.23380000
H       -2.29430000      -3.67250000      -0.16200000
H        2.33000000      -3.52080000       0.20640000
