17
Properties=species:S:1:pos:R:3 gdb_36107=T pbc="F F F"
N       -0.10260000      -1.16300000       0.10720000
C       -0.04670000      -0.02110000      -0.05870000
C        0.03700000       1.42970000      -0.25320000
C        1.44070000       1.95030000      -0.08760000
C        2.09250000       2.23480000       1.23390000
C        1.96700000       3.33470000       0.20820000
C        2.92080000       3.13680000      -0.98470000
C        3.76400000       1.92570000      -0.92750000
N        2.34270000       1.78050000      -1.30130000
H       -0.32660000       1.66990000      -1.25830000
H       -0.63150000       1.91730000       0.46500000
H        1.37840000       2.32140000       2.04790000
H        3.04200000       1.81780000       1.54800000
H        1.42750000       4.25410000       0.39330000
H        3.02270000       3.88130000      -1.76750000
H        4.41600000       1.74840000      -1.77810000
H        4.14180000       1.52110000       0.00360000
