14
Properties=species:S:1:pos:R:3 gdb_3299=T pbc="F F F"
C        0.00820000      -1.25100000      -0.10220000
C        0.02320000      -0.05160000      -0.01840000
C        0.02280000       1.39490000       0.07260000
C       -0.21950000       2.08600000       1.47830000
C        1.11210000       2.81960000       1.29780000
N        2.14470000       1.76030000       1.20030000
C        1.37170000       2.14240000      -0.00000000
H        0.00930000      -2.31050000      -0.16850000
H       -0.67320000       1.81620000      -0.65960000
H       -1.09590000       2.73610000       1.46470000
H       -0.26230000       1.41150000       2.33480000
H        1.36840000       3.81970000       1.62350000
H        3.05020000       2.22370000       1.12730000
H        1.86700000       2.49060000      -0.89790000
