16
Properties=species:S:1:pos:R:3 gdb_30675=T pbc="F F F"
O        0.15640000       1.37320000      -0.23040000
C        0.13080000      -0.02130000      -0.03940000
C       -1.31980000      -0.51490000       0.10180000
O       -2.08190000      -0.02920000      -1.01110000
C       -1.42230000      -1.99070000       0.25530000
C       -1.83310000      -2.84460000       1.22370000
N       -1.68090000      -4.15620000       0.78690000
C       -1.20040000      -4.03630000      -0.40460000
O       -1.00570000      -2.75800000      -0.81020000
H       -0.54280000       1.55820000      -0.87130000
H        0.61060000      -0.56190000      -0.87340000
H        0.69550000      -0.24580000       0.87140000
H       -1.76360000      -0.04450000       0.98450000
H       -1.87340000      -0.58750000      -1.76980000
H       -2.22710000      -2.61360000       2.20050000
H       -0.94090000      -4.81210000      -1.10760000
