15
Properties=species:S:1:pos:R:3 gdb_129063=T pbc="F F F"
N       -0.04320000       1.29510000      -0.03760000
C       -0.03970000       0.01760000       0.03310000
C        1.19660000      -0.81170000       0.09250000
N        1.25120000      -2.10280000      -0.00300000
N        0.02550000      -2.63520000      -0.18900000
C       -0.56800000      -3.96820000      -0.00310000
C       -1.95410000      -3.22310000       0.05280000
C       -1.13770000      -1.93990000      -0.02440000
N       -1.27400000      -0.67760000       0.10250000
H        0.91610000       1.64530000      -0.06870000
H        2.14710000      -0.30630000       0.24320000
H       -0.40680000      -4.64670000      -0.84340000
H       -0.27420000      -4.44820000       0.93400000
H       -2.61130000      -3.40350000      -0.79890000
H       -2.51070000      -3.35080000       0.98190000
