16
Properties=species:S:1:pos:R:3 gdb_47853=T pbc="F F F"
O        0.02460000       0.53370000       1.06170000
C       -0.07070000       1.22320000       0.09030000
C       -1.43880000       1.68960000      -0.42620000
O       -1.46680000       2.72300000      -1.36580000
C       -1.25340000       4.01570000      -0.82640000
C        0.15640000       4.17390000      -0.23470000
N        1.13570000       3.78430000      -1.22440000
C        1.40140000       2.57100000      -1.40800000
O        1.04460000       1.44950000      -0.68310000
H       -1.87670000       0.80990000      -0.91220000
H       -2.04390000       1.90860000       0.46430000
H       -1.38210000       4.70300000      -1.66580000
H       -2.00680000       4.24770000      -0.05880000
H        0.30710000       5.22610000       0.02620000
H        0.24290000       3.59860000       0.70000000
H        2.10240000       2.26110000      -2.17850000
