21
Properties=species:S:1:pos:R:3 gdb_94204=T pbc="F F F"
C       -0.26160000       1.45790000      -0.04470000
C        0.07360000      -0.02200000      -0.05790000
O        1.25710000      -0.31880000      -0.84090000
C        2.00040000      -0.73570000       0.31940000
C        0.74150000      -0.63300000       1.21990000
O        0.83370000       0.18060000       2.36500000
C        0.15870000      -1.96220000       1.63350000
C        0.48910000      -2.57850000       2.96820000
C       -0.89980000      -2.04880000       2.70330000
H        0.58810000       2.06630000       0.28510000
H       -0.52580000       1.78880000      -1.05350000
H       -1.10990000       1.65520000       0.61830000
H       -0.78670000      -0.59790000      -0.42280000
H        2.44040000      -1.73250000       0.20090000
H        2.79700000      -0.02460000       0.58420000
H        1.23000000       1.02120000       2.11750000
H        0.05760000      -2.64720000       0.79660000
H        0.63630000      -3.65190000       3.01200000
H        1.11470000      -2.00280000       3.63940000
H       -1.17760000      -1.12840000       3.20250000
H       -1.70920000      -2.75700000       2.56510000
