21
Properties=species:S:1:pos:R:3 gdb_110363=T pbc="F F F"
C       -0.24800000       1.45260000       0.16720000
C        0.22870000       0.00980000      -0.03730000
C        0.89770000      -0.56520000       1.19520000
C        0.03330000      -1.20260000       2.25800000
C        0.92990000      -2.06230000       1.37990000
C        1.85900000      -2.60570000       2.48960000
C        0.85440000      -3.05120000       3.58750000
C        0.70860000      -1.50480000       3.61500000
O        2.13310000      -1.42400000       3.30280000
H        0.58950000       2.11020000       0.42410000
H       -0.71800000       1.84830000      -0.73850000
H       -0.97740000       1.51440000       0.98150000
H       -0.62180000      -0.62190000      -0.32490000
H        0.93330000      -0.02760000      -0.87820000
H        1.76540000      -0.01570000       1.54600000
H       -1.04770000      -1.19850000       2.17840000
H        0.54930000      -2.72980000       0.61560000
H        2.74910000      -3.17210000       2.21600000
H       -0.00810000      -3.65830000       3.29930000
H        1.35250000      -3.44050000       4.47730000
H        0.41580000      -0.93930000       4.49950000
