21
Properties=species:S:1:pos:R:3 gdb_120611=T pbc="F F F"
C       -0.05740000       1.28560000      -0.00340000
C       -0.29900000      -0.17740000      -0.32740000
O       -1.35820000      -0.65130000       0.50110000
C       -1.62770000      -1.99370000       0.33990000
C       -2.91040000      -2.50740000       0.85750000
C       -2.74400000      -2.42950000      -0.65980000
C       -3.49220000      -1.37060000      -1.43870000
C       -2.44240000      -3.70670000      -1.34280000
O       -1.97750000      -4.68480000      -0.79940000
H        0.75960000       1.67820000      -0.61580000
H       -0.95450000       1.87900000      -0.20120000
H        0.20850000       1.40660000       1.05040000
H       -0.56560000      -0.30830000      -1.38660000
H        0.60710000      -0.77410000      -0.14090000
H       -0.76230000      -2.65570000       0.36870000
H       -2.91850000      -3.50260000       1.28760000
H       -3.58780000      -1.78400000       1.29790000
H       -3.37650000      -0.39390000      -0.96310000
H       -3.11300000      -1.29190000      -2.46410000
H       -4.56290000      -1.59450000      -1.49680000
H       -2.64590000      -3.70760000      -2.43820000
