22
Properties=species:S:1:pos:R:3 gdb_104471=T pbc="F F F"
C        0.48470000       1.05230000       0.46960000
C        0.22030000      -0.38840000       0.00640000
C       -1.24230000      -0.79140000       0.08310000
C       -2.15390000      -0.06920000      -0.86220000
O       -1.78980000       0.60180000      -1.79640000
C       -1.67950000      -2.21690000       0.37830000
C       -0.69650000      -3.34650000       0.60400000
N       -1.94950000      -1.15690000       1.33000000
C       -1.25940000      -1.11190000       2.61170000
H        1.54660000       1.29570000       0.36890000
H       -0.08190000       1.76400000      -0.13510000
H        0.20780000       1.19690000       1.51850000
H        0.52340000      -0.48560000      -1.04190000
H        0.84480000      -1.08010000       0.57620000
H       -3.23150000      -0.22570000      -0.63140000
H       -2.58430000      -2.55670000      -0.12940000
H        0.22250000      -3.03700000       1.10240000
H       -1.16170000      -4.12760000       1.21530000
H       -0.42290000      -3.79890000      -0.35460000
H       -0.18960000      -1.35780000       2.58730000
H       -1.36660000      -0.10780000       3.03250000
H       -1.75220000      -1.81350000       3.29230000
