18
Properties=species:S:1:pos:R:3 gdb_13304=T pbc="F F F"
C       -0.06550000      -1.24820000      -0.03860000
C       -0.05760000      -0.04580000      -0.03640000
C       -0.01180000       1.41140000      -0.03530000
C        1.42630000       1.97870000       0.02150000
C        1.46570000       3.53000000      -0.02890000
C        2.61520000       3.95470000       0.92030000
C        2.80500000       2.73230000       1.78760000
C        2.17000000       1.66780000       1.30170000
H       -0.08650000      -2.30960000      -0.04120000
H       -0.51200000       1.79160000      -0.93560000
H       -0.58130000       1.79740000       0.82040000
H        1.97380000       1.55060000      -0.83060000
H        1.58580000       3.91430000      -1.04510000
H        0.51640000       3.92250000       0.35380000
H        3.53740000       4.18310000       0.36740000
H        2.37400000       4.85640000       1.49460000
H        3.42670000       2.73780000       2.67650000
H        2.18650000       0.67000000       1.72520000
