14
Properties=species:S:1:pos:R:3 gdb_131843=T pbc="F F F"
O        0.11120000       1.29550000      -0.26010000
C       -0.03640000      -0.08810000      -0.01310000
C       -1.53070000      -0.38010000       0.06830000
N       -2.21020000      -0.10120000      -1.18620000
N       -3.02480000       0.95530000      -1.36310000
N       -3.42290000       0.99030000      -2.54790000
O       -2.84470000      -0.09850000      -3.24970000
C       -2.05730000      -0.79260000      -2.37310000
O       -1.40130000      -1.76930000      -2.60610000
H        1.02310000       1.46850000      -0.51050000
H        0.40560000      -0.70170000      -0.80940000
H        0.41920000      -0.39210000       0.94240000
H       -1.69240000      -1.43160000       0.32200000
H       -2.00300000       0.25030000       0.82370000
