21
Properties=species:S:1:pos:R:3 gdb_100078=T pbc="F F F"
C       -0.06450000       1.55110000       0.12390000
C        0.02720000       0.01710000       0.08220000
C        0.72460000      -0.52470000       1.34080000
C       -1.39340000      -0.58530000      -0.03730000
O       -2.23090000      -0.28910000       1.06070000
N        0.71540000      -0.40910000      -1.15030000
C        2.02880000      -0.09910000      -1.43180000
N        2.53400000      -0.78980000      -2.53290000
O        2.71050000       0.68070000      -0.79030000
H        0.93380000       1.98750000       0.13550000
H       -0.60050000       1.93180000      -0.75250000
H       -0.59100000       1.87280000       1.02840000
H        0.13180000      -0.28780000       2.22790000
H        0.82580000      -1.61400000       1.28300000
H        1.72010000      -0.08930000       1.43930000
H       -1.83880000      -0.25640000      -0.98950000
H       -1.32030000      -1.68040000      -0.06500000
H       -2.46500000       0.64270000       1.01390000
H        0.39240000      -1.28500000      -1.53570000
H        1.88970000      -1.00330000      -3.28020000
H        3.40650000      -0.39700000      -2.85380000
