20
Properties=species:S:1:pos:R:3 gdb_13418=T pbc="F F F"
O       -0.02490000       1.44680000       0.22220000
C        0.05590000       0.04240000       0.03290000
C       -1.36620000      -0.50760000       0.03200000
C       -1.43460000      -2.02910000      -0.09450000
C       -2.85900000      -2.61030000      -0.06890000
C       -2.66320000      -3.98570000      -0.71490000
O       -1.54950000      -3.86460000      -1.60250000
C       -0.92100000      -2.59970000      -1.42640000
H        0.86700000       1.80550000       0.20330000
H        0.55750000      -0.20070000      -0.91770000
H        0.63730000      -0.43640000       0.83860000
H       -1.85250000      -0.18800000       0.96120000
H       -1.92340000      -0.04010000      -0.78970000
H       -0.85840000      -2.48620000       0.72190000
H       -3.28390000      -2.66970000       0.93640000
H       -3.52400000      -1.98780000      -0.67920000
H       -2.44080000      -4.75300000       0.04120000
H       -3.53920000      -4.31960000      -1.28290000
H       -1.18560000      -1.92470000      -2.25790000
H        0.16450000      -2.74730000      -1.44740000
