21
Properties=species:S:1:pos:R:3 gdb_66722=T pbc="F F F"
C       -0.04470000       1.48390000       0.05020000
C        0.00080000      -0.00840000      -0.00700000
C        0.28040000      -0.98960000      -1.18910000
C       -0.61510000      -2.03390000      -0.54180000
C        0.87010000      -2.00040000      -0.21850000
C        0.59540000      -1.02750000       0.97150000
C        1.30530000      -0.82890000       2.27110000
C       -0.90210000      -1.06140000       0.64550000
C       -2.09540000      -0.90740000       1.53120000
H        0.91440000       1.92800000      -0.24380000
H       -0.81570000       1.88990000      -0.61630000
H       -0.27060000       1.83290000       1.06390000
H        0.50450000      -0.82620000      -2.23550000
H       -1.20350000      -2.81820000      -1.00110000
H        1.62940000      -2.75410000      -0.38440000
H        2.35000000      -0.53120000       2.11800000
H        0.82510000      -0.04500000       2.86700000
H        1.30680000      -1.74540000       2.87400000
H       -1.94000000      -0.11060000       2.26700000
H       -2.99420000      -0.65270000       0.95610000
H       -2.30740000      -1.82990000       2.08580000
