19
Properties=species:S:1:pos:R:3 gdb_98905=T pbc="F F F"
O        0.15520000       1.39010000       0.07390000
C        0.04900000       0.01160000       0.24680000
C       -1.32650000      -0.50090000      -0.14600000
O       -2.16620000       0.29120000      -0.52510000
C       -1.58320000      -1.98940000      -0.07610000
C       -2.94010000      -2.36560000       0.57740000
C       -3.52230000      -3.44660000      -0.37150000
O       -2.48080000      -3.79430000      -1.27550000
C       -1.73130000      -2.61960000      -1.48830000
H       -0.71960000       1.67030000      -0.24120000
H        0.80240000      -0.53090000      -0.35040000
H        0.22790000      -0.28310000       1.29610000
H       -0.75580000      -2.48290000       0.44230000
H       -2.79350000      -2.74400000       1.59090000
H       -3.59330000      -1.49250000       0.62750000
H       -3.83330000      -4.35920000       0.14260000
H       -4.38660000      -3.04650000      -0.92170000
H       -2.26120000      -1.91490000      -2.14870000
H       -0.78020000      -2.89810000      -1.94800000
