19
Properties=species:S:1:pos:R:3 gdb_119765=T pbc="F F F"
O       -0.11890000       1.44220000      -0.06870000
C        0.01600000       0.03210000      -0.08690000
C       -1.38430000      -0.55390000       0.13230000
C       -1.41010000      -2.05080000       0.11470000
C       -1.64610000      -2.85990000       1.16000000
C       -1.59730000      -4.28130000       0.76420000
O       -1.75500000      -5.24830000       1.47380000
C       -1.30550000      -4.31240000      -0.74670000
C       -1.16540000      -2.83670000      -1.16120000
H        0.75430000       1.83140000      -0.17240000
H        0.42690000      -0.31760000      -1.04670000
H        0.68920000      -0.32190000       0.70910000
H       -1.76760000      -0.17540000       1.08450000
H       -2.03360000      -0.16010000      -0.66060000
H       -1.85490000      -2.54910000       2.17640000
H       -0.40290000      -4.90170000      -0.93160000
H       -2.12560000      -4.82310000      -1.25990000
H       -1.88650000      -2.54130000      -1.93350000
H       -0.17550000      -2.61230000      -1.57660000
