14
Properties=species:S:1:pos:R:3 gdb_127710=T pbc="F F F"
C       -0.10990000       1.46950000      -0.01930000
N       -0.02850000       0.02250000       0.05950000
N        0.11560000      -0.62040000      -1.16240000
N        0.15660000      -1.86370000      -1.19780000
C        0.01220000      -2.65900000       0.02580000
O       -0.11940000      -3.84850000      -0.09860000
N        0.06540000      -1.99770000       1.23500000
C        0.02350000      -0.69940000       1.21840000
N       -0.01590000      -0.01020000       2.39550000
H        0.78810000       1.94890000       0.38870000
H       -0.18970000       1.72340000      -1.07640000
H       -0.99260000       1.83450000       0.51340000
H        0.15720000      -0.58960000       3.20410000
H        0.33640000       0.93160000       2.43870000
