23
Properties=species:S:1:pos:R:3 gdb_123052=T pbc="F F F"
C       -0.11500000       1.52480000       0.05800000
C       -0.04290000       0.00750000       0.08910000
O       -1.35310000      -0.50900000      -0.02180000
C       -1.40390000      -1.91680000       0.00060000
C       -2.85840000      -2.35500000      -0.12270000
C       -3.02130000      -3.86830000      -0.08710000
C       -2.86870000      -4.58810000       1.27520000
O       -4.19120000      -5.15220000       1.17960000
C       -4.45930000      -4.43360000      -0.04120000
H        0.88690000       1.95650000       0.14190000
H       -0.56440000       1.86830000      -0.87800000
H       -0.72440000       1.89670000       0.88660000
H        0.58510000      -0.36730000      -0.73740000
H        0.42440000      -0.33850000       1.02720000
H       -0.80670000      -2.33850000      -0.82760000
H       -0.96380000      -2.30270000       0.93770000
H       -3.43490000      -1.89750000       0.69080000
H       -3.26530000      -1.95610000      -1.06000000
H       -2.41780000      -4.33430000      -0.87220000
H       -2.09570000      -5.36300000       1.34220000
H       -2.77120000      -3.91470000       2.13890000
H       -5.24400000      -3.67590000       0.09190000
H       -4.74980000      -5.10500000      -0.85820000
