18
Properties=species:S:1:pos:R:3 gdb_90332=T pbc="F F F"
O       -0.19510000       1.46340000       0.39270000
C       -0.01080000       0.07690000       0.18020000
C        0.69480000      -0.63960000       1.41310000
C       -0.58910000      -0.90670000       2.15070000
C       -1.24560000       0.07470000       2.78660000
C       -2.60480000       0.26860000       2.14340000
N       -2.59060000      -0.59700000       0.94140000
C       -1.37970000      -0.63520000       0.02600000
C       -1.53380000      -1.57130000       1.16310000
H        0.67010000       1.88590000       0.39710000
H        0.56250000      -0.09450000      -0.74420000
H        1.23140000      -1.53340000       1.07780000
H        1.39310000       0.02940000       1.92380000
H       -0.77630000       0.84580000       3.38700000
H       -3.47360000      -0.02530000       2.74780000
H       -2.73150000       1.32120000       1.86860000
H       -1.68660000      -0.87800000      -0.98570000
H       -1.72320000      -2.63970000       1.11650000
