20
Properties=species:S:1:pos:R:3 gdb_27278=T pbc="F F F"
C       -0.09440000       1.52730000       0.03050000
C       -0.04410000       0.02860000      -0.00360000
C        0.09640000      -0.77550000      -1.11470000
C        0.30680000      -0.70790000      -2.59850000
C        0.02200000      -2.17360000      -3.03620000
C        0.31670000      -3.03560000      -1.78420000
N        0.08790000      -2.08770000      -0.70890000
C       -0.04160000      -2.15790000       0.65060000
C       -0.13360000      -0.86130000       1.11370000
H        0.76620000       1.95600000       0.55900000
H       -0.09640000       1.94670000      -0.98040000
H       -0.99390000       1.89350000       0.53930000
H       -0.35350000       0.00300000      -3.10410000
H        1.33640000      -0.41840000      -2.84970000
H       -1.03420000      -2.27580000      -3.30210000
H        0.61450000      -2.48520000      -3.89920000
H       -0.34310000      -3.90450000      -1.70190000
H        1.35390000      -3.39710000      -1.77290000
H       -0.07530000      -3.10260000       1.16940000
H       -0.26980000      -0.57240000       2.14610000
