14
Properties=species:S:1:pos:R:3 gdb_123694=T pbc="F F F"
C       -0.05230000       1.54700000      -0.00400000
C        1.44630000       1.90030000      -0.03280000
O        2.16610000       1.46700000       1.11850000
C        2.28370000       0.67470000      -0.08000000
C        1.31830000      -0.44970000      -0.05840000
N        1.39920000      -1.74970000      -0.08740000
O        0.06430000      -2.16930000      -0.00310000
C       -0.75050000      -1.08970000       0.07410000
C       -0.01380000       0.04280000       0.03410000
H       -0.53800000       1.99830000       0.86720000
H       -0.55430000       1.93190000      -0.89880000
H        1.77260000       2.84610000      -0.45730000
H        3.27040000       0.61390000      -0.52460000
H       -1.80320000      -1.31600000       0.13890000
