16
Properties=species:S:1:pos:R:3 gdb_100238=T pbc="F F F"
O        0.04350000       1.41940000       0.01250000
C        0.05780000       0.00860000      -0.08090000
C       -1.39650000      -0.48970000      -0.00460000
O       -1.28730000      -1.90610000       0.03130000
C       -2.09390000       0.04960000       1.28210000
C       -1.42900000      -0.39510000       2.50320000
N       -0.89810000      -0.73430000       3.47170000
C       -2.17610000      -0.04940000      -1.16640000
C       -2.85580000       0.26580000      -2.10580000
H        0.94500000       1.72480000       0.14500000
H        0.48860000      -0.34330000      -1.02710000
H        0.60530000      -0.45910000       0.74800000
H       -2.12710000      -2.28230000      -0.25280000
H       -2.09320000       1.14210000       1.24930000
H       -3.13450000      -0.28900000       1.29410000
H       -3.43850000       0.55460000      -2.94610000
