18
Properties=species:S:1:pos:R:3 gdb_31969=T pbc="F F F"
C       -0.32120000       1.43620000       0.29980000
N       -0.17290000       0.09010000      -0.24210000
C       -1.20920000      -0.81140000      -0.09930000
C       -1.25470000      -2.17550000      -0.02550000
C       -2.64830000      -2.51240000       0.01310000
C       -3.35060000      -1.35340000      -0.03630000
C       -4.78720000      -0.98670000       0.01550000
O       -5.19530000      -0.40360000       1.25450000
O       -2.45940000      -0.29100000      -0.10810000
H        0.57580000       2.00970000       0.05590000
H       -1.17590000       1.92590000      -0.17110000
H       -0.47000000       1.45910000       1.39000000
H        0.71950000      -0.33390000      -0.03530000
H       -0.41180000      -2.84730000      -0.00340000
H       -3.07310000      -3.50260000       0.07820000
H       -5.03600000      -0.31450000      -0.82110000
H       -5.38290000      -1.89560000      -0.10300000
H       -4.62000000       0.35240000       1.41040000
