18
Properties=species:S:1:pos:R:3 gdb_90269=T pbc="F F F"
O       -0.12570000       1.42170000       0.01350000
C       -0.01770000       0.02240000       0.03650000
C        0.31300000      -0.62610000       1.43570000
C       -1.13860000      -1.06290000       1.51410000
O       -1.66570000      -2.20090000       2.17120000
C       -2.93110000      -1.51420000       2.38920000
C       -2.36590000      -0.17510000       1.84640000
N       -2.56040000       0.17100000       0.42110000
C       -1.42300000      -0.69060000       0.03160000
H        0.75890000       1.78450000       0.12440000
H        0.63670000      -0.34720000      -0.76430000
H        0.99260000      -1.47880000       1.33830000
H        0.68410000       0.04470000       2.21600000
H       -3.74600000      -1.95070000       1.79820000
H       -3.20270000      -1.52320000       3.45080000
H       -2.36880000       0.67010000       2.53760000
H       -3.45340000      -0.10800000       0.02900000
H       -1.58290000      -1.40880000      -0.77450000
