16
Properties=species:S:1:pos:R:3 gdb_6646=T pbc="F F F"
C       -0.20970000       1.43520000       0.01300000
C        0.10810000      -0.03150000       0.00100000
N        1.29660000      -0.46720000      -0.01340000
O       -1.05560000      -0.75530000       0.00830000
C       -0.96060000      -2.16920000      -0.00140000
C       -2.40160000      -2.69180000       0.00950000
C       -2.44760000      -4.15090000       0.00090000
N       -2.46470000      -5.30580000      -0.00600000
H        0.71630000       2.00780000       0.00770000
H       -0.81340000       1.69880000      -0.86110000
H       -0.79690000       1.68810000       0.90120000
H        1.35830000      -1.48390000      -0.02010000
H       -0.43340000      -2.51890000      -0.89790000
H       -0.41600000      -2.52990000       0.88030000
H       -2.91980000      -2.31690000       0.89810000
H       -2.93700000      -2.30610000      -0.86420000
