15
Properties=species:S:1:pos:R:3 gdb_27629=T pbc="F F F"
C       -0.05560000       1.52190000       0.09740000
C        0.00780000       0.03970000      -0.00030000
C        0.02440000      -0.81160000      -1.08160000
N        0.09130000      -2.14570000      -0.66250000
C        0.11320000      -2.07420000       0.63440000
O        0.17510000      -3.09580000       1.50310000
N        0.06610000      -0.79800000       1.10570000
C       -0.01830000      -0.44010000      -2.44510000
C       -0.05540000      -0.10900000      -3.60300000
H        0.82090000       1.94080000       0.60730000
H       -0.09250000       1.94310000      -0.90940000
H       -0.94650000       1.86300000       0.63940000
H        0.20030000      -3.90120000       0.97060000
H        0.07280000      -0.52530000       2.07410000
H       -0.08800000       0.17380000      -4.62550000
