21
Properties=species:S:1:pos:R:3 gdb_91068=T pbc="F F F"
C       -0.08550000       1.55410000       0.00850000
C        0.08200000       0.03620000       0.00820000
C        0.91200000      -0.51550000      -1.17830000
C        1.31470000      -1.93020000      -0.73460000
C        2.81030000      -2.29440000      -0.61390000
O        3.44330000      -1.26520000       0.15750000
C        2.74200000      -2.30210000       0.85600000
C        1.24140000      -1.93860000       0.84120000
C        0.79850000      -0.52850000       1.26070000
H        0.88970000       2.05240000       0.05650000
H       -0.59310000       1.90030000      -0.89830000
H       -0.67530000       1.89090000       0.86790000
H       -0.91590000      -0.42440000      -0.04070000
H        0.35240000      -0.49750000      -2.11830000
H        1.80730000       0.10250000      -1.30830000
H        0.72870000      -2.72530000      -1.20100000
H        3.44100000      -2.84940000      -1.29950000
H        3.30660000      -2.86470000       1.59130000
H        0.61510000      -2.73840000       1.24270000
H        1.67760000       0.08760000       1.47990000
H        0.15410000      -0.52020000       2.14480000
