14
Properties=species:S:1:pos:R:3 gdb_4368=T pbc="F F F"
N        0.00760000       1.39780000      -0.16100000
C        0.02030000       0.00860000      -0.06540000
C       -1.17470000      -0.72240000       0.02250000
N       -1.22050000      -2.05090000       0.05720000
C       -0.08170000      -2.73670000       0.00820000
C        1.16310000      -2.10530000      -0.07750000
O        2.27260000      -2.89200000      -0.11900000
C        1.21510000      -0.71620000      -0.11360000
H        0.83920000       1.86090000       0.17530000
H       -0.82950000       1.83610000       0.19510000
H       -2.12660000      -0.19580000       0.06350000
H       -0.13370000      -3.82080000       0.03840000
H        3.05600000      -2.33630000      -0.18750000
H        2.16980000      -0.19950000      -0.18470000
