21
Properties=species:S:1:pos:R:3 gdb_97799=T pbc="F F F"
C        0.02310000       1.62500000      -0.01190000
C        0.01690000       0.08620000      -0.06600000
C       -1.32770000      -0.48020000      -0.05670000
C       -2.44390000      -0.93440000      -0.04640000
C       -3.78190000      -1.45010000      -0.02410000
C       -4.25620000      -2.42270000      -1.10750000
C       -4.05460000      -2.90020000       0.30400000
O       -2.96240000      -3.69490000       0.60970000
C       -3.17670000      -5.06130000       0.31770000
H        1.04960000       2.00400000      -0.01920000
H       -0.50650000       2.04610000      -0.87100000
H       -0.47020000       1.98340000       0.89580000
H        0.54830000      -0.24840000      -0.96660000
H        0.58790000      -0.31070000       0.78360000
H       -4.53290000      -0.75420000       0.34060000
H       -5.26240000      -2.30810000      -1.49520000
H       -3.50710000      -2.72030000      -1.83180000
H       -4.94610000      -3.10850000       0.89950000
H       -4.01860000      -5.47220000       0.89570000
H       -3.38020000      -5.22130000      -0.75080000
H       -2.26430000      -5.59450000       0.59390000
