16
Properties=species:S:1:pos:R:3 gdb_61115=T pbc="F F F"
C       -0.00010000       1.59580000       0.06160000
C        0.01570000       0.05670000      -0.08320000
C        0.61880000      -0.65400000       1.16110000
C        0.01530000      -0.22380000       2.42020000
N       -0.44090000       0.14100000       3.41700000
C       -1.42940000      -0.43350000      -0.31980000
O       -1.96530000      -1.28950000       0.32650000
C        0.76680000      -0.33420000      -1.27640000
C        1.35110000      -0.67150000      -2.27130000
H        1.02100000       1.97620000       0.14500000
H       -0.46060000       2.05510000      -0.81700000
H       -0.56040000       1.89090000       0.95260000
H        0.48370000      -1.73350000       1.05610000
H        1.69330000      -0.45230000       1.20050000
H       -1.93540000       0.07670000      -1.16670000
H        1.87810000      -0.96290000      -3.14690000
