23
Properties=species:S:1:pos:R:3 gdb_52318=T pbc="F F F"
O       -0.75570000       0.94790000       0.86560000
C       -0.01180000       1.04750000      -0.07590000
C        1.27760000       1.83360000      -0.09010000
C        1.28560000       2.89620000      -1.20550000
C        2.60030000       3.67450000      -1.30510000
C        3.83430000       2.82710000      -1.69710000
C        4.82990000       3.80810000      -2.38170000
C        4.07550000       5.15730000      -2.51340000
C        2.59150000       4.78920000      -2.36610000
H       -0.24860000       0.54570000      -1.04510000
H        1.42300000       2.28480000       0.89610000
H        2.09540000       1.12010000      -0.26420000
H        1.08190000       2.41200000      -2.17120000
H        0.46010000       3.59820000      -1.03220000
H        2.79700000       4.14360000      -0.32990000
H        4.27930000       2.31610000      -0.83900000
H        3.52770000       2.04550000      -2.40360000
H        5.75190000       3.92190000      -1.80500000
H        5.12460000       3.42830000      -3.36440000
H        4.36580000       5.83190000      -1.69980000
H        4.29720000       5.67600000      -3.45010000
H        2.20240000       4.38970000      -3.31300000
H        1.96000000       5.63880000      -2.08820000
