17
Properties=species:S:1:pos:R:3 gdb_124726=T pbc="F F F"
C        0.09650000       1.39640000       1.22450000
C       -0.18780000       0.53290000      -0.00970000
N        0.83480000      -0.52440000      -0.23960000
H       -0.17270000      -1.78650000      -1.19030000
H        1.71270000      -0.10520000      -0.53120000
H        1.01920000      -1.00850000       0.63700000
C       -1.52990000      -0.14350000       0.03800000
C       -1.83460000      -1.33240000      -0.58190000
O       -1.08550000      -2.16250000      -1.28700000
O       -3.10770000      -1.66710000      -0.39980000
N       -3.72720000      -0.65900000       0.37880000
C       -2.77460000       0.21110000       0.61580000
H        1.08070000       1.86950000       1.14620000
H       -0.64840000       2.19140000       1.33020000
H        0.07260000       0.78950000       2.13620000
H       -0.13430000       1.18060000      -0.89660000
H       -3.02030000       1.08440000       1.20550000
