14
Properties=species:S:1:pos:R:3 gdb_127469=T pbc="F F F"
C       -0.02650000       1.38800000      -0.04470000
N        0.00910000      -0.05980000      -0.01690000
N        0.07800000      -0.77740000      -1.14950000
C        0.09880000      -2.03890000      -0.71950000
N        0.22900000      -3.11600000      -1.55860000
C        0.03310000      -2.02230000       0.69740000
N       -0.02230000      -0.73930000       1.10220000
C        0.01420000      -3.12920000       1.57510000
N       -0.00450000      -4.08410000       2.23140000
H        0.88300000       1.77200000      -0.51290000
H       -0.89410000       1.72540000      -0.61660000
H       -0.09540000       1.73240000       0.98560000
H       -0.03060000      -2.93920000      -2.51740000
H       -0.11990000      -3.99180000      -1.19960000
