16
Properties=species:S:1:pos:R:3 gdb_127340=T pbc="F F F"
C       -0.14850000       1.42940000       0.01590000
N       -0.02330000      -0.01150000      -0.00270000
C        0.09110000      -0.85270000      -1.04970000
N        0.18060000      -2.10170000      -0.63500000
C        0.11710000      -1.97040000       0.71990000
C        0.17510000      -3.13580000       1.66820000
C        1.49120000      -3.76820000       1.72560000
C        2.57240000      -4.28810000       1.78060000
N       -0.00920000      -0.72320000       1.15080000
H        0.68540000       1.87310000       0.56540000
H       -0.13980000       1.79520000      -1.01240000
H       -1.08580000       1.72060000       0.49650000
H        0.10110000      -0.51320000      -2.07500000
H       -0.11190000      -2.78020000       2.66320000
H       -0.57090000      -3.87870000       1.36070000
H        3.52820000      -4.74810000       1.82290000
