17
Properties=species:S:1:pos:R:3 gdb_123797=T pbc="F F F"
C       -0.37320000       1.11320000      -0.24070000
C        1.06070000       1.10800000       0.22810000
C        0.32230000      -0.19020000       0.04970000
N       -0.04140000      -0.90300000       1.23640000
C       -1.08010000      -1.80400000       1.20900000
N       -2.00450000      -1.83590000       0.25520000
N       -2.81240000      -2.84610000       0.70000000
C       -2.34020000      -3.35370000       1.84860000
N       -1.23970000      -2.72420000       2.21160000
H       -1.13070000       1.42850000       0.46620000
H       -0.58320000       1.35410000      -1.27620000
H        1.84480000       1.34790000      -0.48100000
H        1.25520000       1.42980000       1.24510000
H        0.58440000      -0.80130000      -0.81390000
H        0.71980000      -1.21140000       1.82360000
H       -3.62350000      -3.10660000       0.16600000
H       -2.81650000      -4.16430000       2.37980000
