19
Properties=species:S:1:pos:R:3 gdb_52405=T pbc="F F F"
O        0.30770000       0.08180000       0.31060000
C        0.35680000       1.26930000       0.41790000
O        0.71230000       2.08040000      -0.59590000
C        0.78130000       3.48900000      -0.34350000
C        2.23310000       3.95540000      -0.29600000
C        2.35280000       5.46420000      -0.12190000
C        2.05550000       6.06860000       1.27270000
O        3.37020000       6.64900000       1.35410000
C        3.76790000       6.04330000       0.10780000
H        0.11230000       1.82540000       1.34520000
H        0.24020000       3.97610000      -1.16080000
H        0.25900000       3.72650000       0.59320000
H        2.74960000       3.44240000       0.52550000
H        2.72890000       3.64410000      -1.22310000
H        1.81630000       5.98130000      -0.92320000
H        1.26650000       6.82850000       1.32200000
H        1.88410000       5.32890000       2.06840000
H        4.55430000       5.28910000       0.24950000
H        4.11590000       6.78640000      -0.61890000
