18
Properties=species:S:1:pos:R:3 gdb_47531=T pbc="F F F"
O        0.02030000      -0.01000000      -0.27840000
C        0.00760000       1.15390000       0.01640000
O       -1.19780000       1.75650000       0.23430000
C       -1.36680000       2.89830000       1.08950000
C       -0.64750000       4.18990000       0.66780000
N        0.78730000       4.09160000       0.39620000
C        1.06290000       3.29230000      -0.84040000
C        1.26430000       2.00750000       0.00950000
C        1.45570000       3.00530000       1.18370000
H       -2.44520000       3.07850000       1.09190000
H       -1.08990000       2.61310000       2.11070000
H       -1.12270000       4.60660000      -0.22670000
H       -0.81220000       4.91160000       1.47980000
H        0.26170000       3.28800000      -1.58350000
H        1.99190000       3.62930000      -1.31080000
H        2.09770000       1.34910000      -0.23540000
H        2.51400000       3.24520000       1.32430000
H        1.02490000       2.77390000       2.15970000
