20
Properties=species:S:1:pos:R:3 gdb_122098=T pbc="F F F"
C       -0.06900000       1.38520000       0.03710000
O        0.01400000      -0.02110000       0.01980000
C        0.63830000      -0.51990000      -1.13950000
C        0.63060000      -2.04170000      -1.05320000
C        1.32840000      -2.72860000      -2.24200000
C        1.39810000      -4.26610000      -2.05930000
O        2.07860000      -4.91080000      -3.10850000
C        0.66040000      -2.43870000      -3.51540000
N        0.12820000      -2.26520000      -4.52750000
H        0.92760000       1.85350000       0.00970000
H       -0.65220000       1.76980000      -0.81400000
H       -0.56790000       1.67080000       0.96610000
H        0.10680000      -0.18250000      -2.04490000
H        1.67480000      -0.14520000      -1.21500000
H        1.14080000      -2.34450000      -0.13260000
H       -0.40530000      -2.38840000      -0.97720000
H        2.35980000      -2.36400000      -2.32770000
H        1.96420000      -4.47460000      -1.14660000
H        0.37930000      -4.65770000      -1.92120000
H        1.55110000      -4.82120000      -3.91060000
