21
Properties=species:S:1:pos:R:3 gdb_83585=T pbc="F F F"
C       -0.03670000       1.53050000       0.03500000
C        0.03570000       0.00380000      -0.01030000
C        0.92300000      -0.58140000      -1.13180000
C        2.32160000      -0.28470000      -0.56420000
O        2.17430000      -0.36910000       0.86430000
C        0.80920000      -0.60720000       1.16790000
O        0.52170000      -1.98650000       1.28530000
C        0.99010000      -2.74710000       0.17340000
C        0.65980000      -2.10080000      -1.18500000
H        0.95080000       1.98340000       0.16160000
H       -0.47700000       1.92830000      -0.88530000
H       -0.65980000       1.86290000       0.87190000
H       -0.97370000      -0.41490000      -0.04400000
H        0.76400000      -0.11370000      -2.10730000
H        3.07840000      -1.00740000      -0.89080000
H        2.67130000       0.71960000      -0.83270000
H        0.59810000      -0.17470000       2.14860000
H        2.07640000      -2.88440000       0.26330000
H        0.52370000      -3.73150000       0.26520000
H       -0.39160000      -2.27280000      -1.44170000
H        1.26660000      -2.58020000      -1.96210000
