18
Properties=species:S:1:pos:R:3 gdb_62734=T pbc="F F F"
C        0.04670000       1.51790000       0.04890000
C        0.07600000       0.00150000       0.05080000
C       -1.18750000      -0.63610000      -0.50560000
C        1.34150000      -0.79320000      -0.20610000
N        2.53350000      -0.17200000       0.37470000
C        1.97700000      -0.12430000       1.67210000
O        2.40500000       0.29220000       2.71090000
C        0.70020000      -0.81110000       1.19210000
O       -0.05510000      -1.73190000       1.87220000
H        0.97060000       1.95710000       0.43240000
H       -0.11150000       1.89530000      -0.96780000
H       -0.77580000       1.88470000       0.67170000
H       -1.37850000      -0.26400000      -1.51780000
H       -1.11420000      -1.72520000      -0.54300000
H       -2.05350000      -0.38630000       0.11560000
H        1.43130000      -1.59720000      -0.92530000
H        2.99710000       0.63310000      -0.03200000
H        0.53570000      -2.37430000       2.28170000
