16
Properties=species:S:1:pos:R:3 gdb_10436=T pbc="F F F"
O        0.13970000       1.30440000      -0.26740000
C        0.05120000      -0.07620000       0.01200000
C       -1.39960000      -0.55210000       0.10120000
C       -2.17920000      -0.52130000      -1.24720000
O       -2.21680000      -1.95820000      -1.32090000
C       -1.61260000      -2.08410000      -0.02300000
C       -2.14520000       0.10660000       1.23120000
O       -1.71970000       1.02590000       1.89080000
H       -0.21960000       1.75280000       0.50870000
H        0.55180000      -0.59950000      -0.80970000
H        0.57690000      -0.34140000       0.94270000
H       -3.18640000      -0.08670000      -1.20420000
H       -1.62300000      -0.06090000      -2.07020000
H       -0.68930000      -2.67570000      -0.04350000
H       -2.30050000      -2.52290000       0.71250000
H       -3.16150000      -0.30460000       1.42570000
