23
Properties=species:S:1:pos:R:3 gdb_111456=T pbc="F F F"
C        0.93090000      -0.33670000       1.29950000
C        0.12820000       0.09750000       0.06970000
C        0.73930000      -0.38770000      -1.25820000
C        0.81020000      -1.91130000      -1.41750000
C       -0.47310000      -2.70390000      -1.48990000
C        0.21730000      -2.26640000      -2.76800000
C       -0.25490000      -0.96930000      -3.32920000
C       -0.01790000       0.06050000      -2.50850000
C       -0.40890000       1.48850000      -2.72830000
H        0.96870000      -1.42740000       1.38410000
H        1.96290000       0.02930000       1.24760000
H        0.48630000       0.05350000       2.22040000
H       -0.90070000      -0.27460000       0.15090000
H        0.05850000       1.19220000       0.05280000
H        1.76280000       0.02030000      -1.30540000
H        1.68980000      -2.42760000      -1.05180000
H       -0.41100000      -3.75230000      -1.21510000
H       -1.41480000      -2.22680000      -1.23920000
H        0.65320000      -3.01920000      -3.41600000
H       -0.76370000      -0.89200000      -4.28470000
H       -0.86620000       1.62880000      -3.71170000
H       -1.12540000       1.83720000      -1.97390000
H        0.46150000       2.15460000      -2.65950000
