21
Properties=species:S:1:pos:R:3 gdb_41494=T pbc="F F F"
C        0.05010000       1.55050000      -0.06630000
C        1.61390000       1.39560000       0.00990000
C        1.32830000       0.04820000       0.63500000
C        1.62280000      -0.61210000       1.75110000
C        0.51150000      -1.49770000       2.29500000
C       -0.74630000      -0.57120000       2.45790000
C       -1.01050000      -0.81790000       0.94120000
C       -0.28660000      -2.19030000       1.14860000
C       -0.06710000      -0.00850000       0.04690000
H       -0.33680000       2.05530000       0.82230000
H       -0.36400000       2.01840000      -0.96280000
H        2.04920000       1.32920000      -0.99360000
H        2.17880000       2.12540000       0.59490000
H        2.50250000      -0.41160000       2.35620000
H        0.82340000      -2.10640000       3.14490000
H       -1.52490000      -1.04590000       3.06210000
H       -0.57900000       0.44980000       2.81070000
H       -2.04780000      -0.81720000       0.59660000
H        0.28260000      -2.59740000       0.30850000
H       -0.96560000      -2.95350000       1.53830000
H       -0.07510000      -0.43150000      -0.96690000
