20
Properties=species:S:1:pos:R:3 gdb_30910=T pbc="F F F"
C        0.05680000       1.58310000       0.17900000
C        0.01420000       0.05010000       0.02040000
C        0.65110000      -0.47300000      -1.22470000
C        0.10550000      -0.82700000      -2.44010000
N       -1.25070000      -0.81810000      -2.80890000
N        1.06680000      -1.28910000      -3.30190000
C        2.19370000      -1.21810000      -2.62450000
N        2.01490000      -0.72340000      -1.37220000
C        3.04570000      -0.54060000      -0.37500000
H        1.08580000       1.95390000       0.22970000
H       -0.42620000       2.07710000      -0.66990000
H       -0.45740000       1.89660000       1.09360000
H        0.46830000      -0.41430000       0.90590000
H       -1.03100000      -0.28040000       0.01370000
H       -1.69050000       0.08480000      -2.67940000
H       -1.33360000      -1.08590000      -3.78250000
H        3.16930000      -1.50770000      -2.98720000
H        3.13540000       0.51000000      -0.07980000
H        2.84150000      -1.13650000       0.52080000
H        4.00050000      -0.86530000      -0.79340000
