13
Properties=species:S:1:pos:R:3 gdb_5194=T pbc="F F F"
O       -0.41440000       0.66080000       0.87080000
C        0.09110000       1.01750000      -0.16010000
C        1.41380000       1.77270000      -0.24500000
C        1.35270000       2.90140000      -1.22180000
C        1.36630000       4.24040000      -1.00950000
O        1.26530000       4.86670000      -2.22120000
C        1.18730000       3.85590000      -3.11250000
N        1.23280000       2.67370000      -2.59340000
H       -0.37720000       0.80930000      -1.14620000
H        1.68710000       2.11160000       0.75670000
H        2.17030000       1.04970000      -0.58090000
H        1.44180000       4.87420000      -0.14320000
H        1.09960000       4.12960000      -4.15220000
