17
Properties=species:S:1:pos:R:3 gdb_56966=T pbc="F F F"
O       -0.30860000       1.33480000      -0.11670000
C       -0.01710000      -0.06000000      -0.10870000
C        0.83270000      -0.42870000      -1.24530000
C        1.55480000      -0.70230000      -2.16630000
C        0.62110000      -0.54310000       1.19980000
C        1.34040000       0.38210000       2.11910000
C        0.03060000      -0.25570000       2.57760000
C       -1.16210000       0.60540000       2.78370000
O       -1.99560000       0.38290000       3.63010000
H        0.49980000       1.80000000      -0.35840000
H       -0.99080000      -0.55250000      -0.22410000
H        2.17870000      -0.95140000      -2.98940000
H        1.02570000      -1.54650000       1.10800000
H        2.25610000       0.05740000       2.59860000
H        1.29310000       1.44320000       1.89720000
H        0.09420000      -1.06640000       3.29590000
H       -1.23560000       1.48310000       2.11170000
