21
Properties=species:S:1:pos:R:3 gdb_83788=T pbc="F F F"
C       -0.34230000       1.52380000      -0.08570000
C       -0.03160000       0.04570000       0.01270000
C        1.30700000      -0.57370000      -0.34150000
C        2.54920000       0.25810000      -0.64830000
C        3.61330000       0.16120000       0.46320000
C        3.03940000       0.48330000       1.82680000
O        2.03750000       1.50850000       1.86210000
C        1.63150000       0.15470000       2.11650000
C        0.81900000      -0.58710000       1.09600000
H        0.48840000       2.14460000       0.24630000
H       -0.59540000       1.79310000      -1.11780000
H       -1.20710000       1.77180000       0.53980000
H       -0.87680000      -0.57840000      -0.27070000
H        1.26110000      -1.52380000      -0.86560000
H        2.98770000      -0.07740000      -1.59300000
H        2.28820000       1.31060000      -0.78660000
H        4.03910000      -0.85090000       0.50450000
H        4.44450000       0.84150000       0.24260000
H        3.74920000       0.52620000       2.65330000
H        1.34370000      -0.01790000       3.15370000
H        0.45770000      -1.53450000       1.48820000
