20
Properties=species:S:1:pos:R:3 gdb_57627=T pbc="F F F"
C        0.16490000       1.56070000       0.07630000
C       -0.01960000       0.02690000       0.02740000
C        0.65390000      -0.63250000       1.25270000
C       -1.52400000      -0.36920000      -0.07620000
C       -2.38940000       0.11520000       1.06260000
C       -3.52600000      -0.67660000       1.55100000
O       -2.31120000      -0.60410000       2.29820000
C        0.63820000      -0.47500000      -1.19230000
N        1.14730000      -0.87080000      -2.15180000
H        1.22630000       1.81900000       0.04450000
H       -0.32930000       2.04850000      -0.76880000
H       -0.25120000       1.96100000       1.00450000
H        0.17870000      -0.28540000       2.17210000
H        0.56050000      -1.72070000       1.21300000
H        1.71720000      -0.38010000       1.28550000
H       -1.92810000       0.03280000      -1.01330000
H       -1.59670000      -1.45990000      -0.13650000
H       -2.45070000       1.19620000       1.19130000
H       -4.38220000      -0.17470000       1.99870000
H       -3.73850000      -1.64390000       1.09790000
