19
Properties=species:S:1:pos:R:3 gdb_45816=T pbc="F F F"
O        0.04260000      -0.08690000      -0.05080000
C        0.00620000       1.12310000      -0.05590000
C       -1.32140000       1.87570000      -0.05130000
C       -1.26920000       3.23110000      -0.70670000
C       -0.14670000       3.84710000      -1.07610000
C        1.23290000       3.30530000      -0.86750000
C        1.99870000       3.98980000       0.31280000
C        1.57630000       2.80950000       1.22400000
C        1.25530000       1.96830000      -0.05780000
H       -2.07080000       1.22740000      -0.51810000
H       -1.64330000       1.97890000       0.99740000
H       -2.22770000       3.71550000      -0.87760000
H       -0.20670000       4.83010000      -1.53970000
H        1.77920000       3.28470000      -1.81630000
H        3.07760000       4.00930000       0.13700000
H        1.66990000       4.99090000       0.60100000
H        2.32460000       2.38990000       1.89850000
H        0.67650000       3.03910000       1.80040000
H        2.10040000       1.33260000      -0.32790000
