22
Properties=species:S:1:pos:R:3 gdb_52792=T pbc="F F F"
C        0.06250000       1.46420000       0.00040000
C        0.02390000       0.00880000      -0.00360000
C       -0.01830000      -1.19530000       0.01030000
C       -0.01130000      -2.64170000      -0.03080000
C        1.24920000      -3.19120000      -0.68450000
N       -0.54950000      -3.31550000       1.18860000
C       -1.32260000      -3.39080000      -0.06520000
C       -2.62240000      -2.61010000      -0.03700000
C       -1.44320000      -4.71940000      -0.78790000
H        1.03590000       1.83770000      -0.33670000
H       -0.70140000       1.88760000      -0.66150000
H       -0.11360000       1.86220000       1.00600000
H        2.13070000      -2.83360000      -0.14310000
H        1.27480000      -4.28280000      -0.68720000
H        1.33250000      -2.84280000      -1.71880000
H       -0.03190000      -4.18250000       1.32720000
H       -2.50570000      -1.67650000       0.51360000
H       -2.95730000      -2.37540000      -1.05350000
H       -3.40540000      -3.20320000       0.44870000
H       -2.21810000      -5.32930000      -0.30870000
H       -1.74280000      -4.57230000      -1.83150000
H       -0.51790000      -5.29860000      -0.78180000
