14
Properties=species:S:1:pos:R:3 gdb_11182=T pbc="F F F"
O       -0.01730000       0.04950000      -0.31710000
C       -0.01700000       1.22450000      -0.07210000
C       -1.24410000       2.10200000       0.19280000
O       -0.74340000       3.35930000       0.61020000
C        0.55000000       3.54990000       0.00910000
C        1.19720000       2.15180000       0.03480000
C        0.44120000       4.08980000      -1.34980000
C        0.34340000       4.51550000      -2.46940000
H       -1.83820000       2.17610000      -0.73120000
H       -1.87670000       1.68590000       0.98160000
H        1.07480000       4.26560000       0.64740000
H        1.68270000       1.97540000       1.00090000
H        1.91860000       1.96310000      -0.76000000
H        0.25830000       4.90300000      -3.45490000
