11
Properties=species:S:1:pos:R:3 gdb_133476=T pbc="F F F"
F        0.50300000       0.20460000       0.25390000
C       -0.04610000       1.40850000       0.04820000
F        0.93950000       2.24140000      -0.30920000
F       -0.89950000       1.30960000      -0.97070000
C       -0.73720000       1.89990000       1.29000000
N       -2.02780000       2.18260000       1.31450000
N       -2.19420000       2.57230000       2.59560000
C       -1.02440000       2.50760000       3.26590000
N       -0.07160000       2.08180000       2.46240000
H       -3.10620000       2.85620000       2.91630000
H       -0.91900000       2.77300000       4.30690000
