19
Properties=species:S:1:pos:R:3 gdb_111900=T pbc="F F F"
C       -0.08440000       1.51160000       0.09910000
C       -0.01060000       0.02080000       0.01730000
C        0.03540000      -0.72610000      -1.09190000
C        0.09400000      -2.20540000      -0.82300000
C        1.27900000      -2.97630000      -1.44850000
O        1.20600000      -4.35490000      -1.17360000
C        0.17690000      -2.25550000       0.70810000
O        0.40900000      -3.24850000       1.35860000
C        0.00340000      -0.83930000       1.26040000
H        0.76290000       1.91940000       0.66480000
H       -0.08350000       1.96850000      -0.89420000
H       -0.99230000       1.83540000       0.62390000
H        0.02580000      -0.32100000      -2.09860000
H       -0.81960000      -2.72730000      -1.14480000
H        1.25520000      -2.86090000      -2.53780000
H        2.22420000      -2.53180000      -1.09400000
H        1.09080000      -4.43640000      -0.21580000
H        0.80880000      -0.59950000       1.96610000
H       -0.93100000      -0.77380000       1.83640000
