23
Properties=species:S:1:pos:R:3 gdb_121117=T pbc="F F F"
C       -0.01350000       0.96760000       0.27330000
C       -0.11570000      -0.07360000      -0.83910000
O       -1.39470000      -0.70480000      -0.88440000
C       -1.54750000      -1.79160000      -0.00000000
C       -3.00320000      -2.28580000      -0.11490000
C       -2.87220000      -3.74880000      -0.58450000
C       -1.44110000      -3.81340000      -1.14870000
C       -1.33710000      -3.47720000      -2.63700000
O       -0.71210000      -2.88230000      -0.33450000
H        0.95660000       1.47380000       0.22760000
H       -0.80140000       1.71920000       0.16850000
H       -0.10390000       0.51420000       1.26530000
H        0.00710000       0.40900000      -1.81410000
H        0.66990000      -0.83290000      -0.74600000
H       -1.25660000      -1.49200000       1.01520000
H       -3.53170000      -2.20040000       0.83660000
H       -3.52190000      -1.65980000      -0.84350000
H       -2.96550000      -4.43380000       0.26300000
H       -3.62800000      -4.02650000      -1.32320000
H       -0.98050000      -4.79010000      -0.96720000
H       -1.80580000      -2.51490000      -2.85960000
H       -0.28660000      -3.41960000      -2.93630000
H       -1.82310000      -4.25370000      -3.23770000
