18
Properties=species:S:1:pos:R:3 gdb_124800=T pbc="F F F"
C        0.02920000       1.48440000      -0.16180000
C        0.03160000      -0.01000000       0.19830000
O        0.57940000      -0.21710000       1.48860000
C       -1.34680000      -0.60600000       0.08810000
N       -2.10470000      -0.75180000       1.17490000
N       -3.23060000      -1.26730000       0.70100000
N       -3.27400000      -1.47730000      -0.60700000
C       -2.07890000      -1.05880000      -1.03340000
C       -1.68900000      -1.11420000      -2.47420000
H        1.04110000       1.88580000      -0.06160000
H       -0.31290000       1.64750000      -1.18950000
H       -0.63430000       2.03400000       0.51320000
H        0.69270000      -0.53400000      -0.50510000
H       -0.15720000      -0.21910000       2.11170000
H       -3.99880000      -1.51230000       1.30370000
H       -1.58580000      -0.11170000      -2.90410000
H       -0.72910000      -1.62450000      -2.60670000
H       -2.44830000      -1.65210000      -3.04510000
