14
Properties=species:S:1:pos:R:3 gdb_19633=T pbc="F F F"
C        0.05640000      -1.16630000      -0.03770000
C        0.01850000       0.03800000      -0.01240000
C       -0.03830000       1.44680000       0.02990000
C       -0.91700000       2.45460000       0.84400000
C       -0.82620000       3.46140000      -0.29050000
C        0.21330000       3.46990000       0.82090000
C        1.09560000       2.48710000      -0.00300000
C        0.06230000       2.47850000      -1.10780000
H        0.09310000      -2.22670000      -0.06270000
H       -1.69730000       2.29540000       1.57500000
H       -1.52870000       4.22640000      -0.59020000
H        0.45950000       4.24260000       1.53560000
H        2.16030000       2.30210000      -0.04190000
H        0.17360000       2.28570000      -2.16600000
