16
Properties=species:S:1:pos:R:3 gdb_54391=T pbc="F F F"
N        0.06200000       1.04500000       0.72510000
C        0.00360000       0.01380000      -0.16190000
O        0.87700000      -0.25730000      -0.96220000
C       -1.27650000      -0.76930000      -0.04610000
C       -2.38650000      -0.99500000      -1.13550000
C       -2.93760000      -1.78200000       0.10780000
C       -1.46280000      -2.29340000       0.28790000
C       -2.45890000      -0.56630000       0.90540000
O       -2.77900000       0.17560000       1.78800000
H        0.88060000       1.63140000       0.73510000
H       -0.69040000       1.22040000       1.37470000
H       -2.94330000      -0.11930000      -1.47240000
H       -2.06700000      -1.62700000      -1.96570000
H       -3.85800000      -2.35480000       0.18250000
H       -1.11660000      -2.96300000      -0.50110000
H       -1.15740000      -2.62990000       1.27980000
