14
Properties=species:S:1:pos:R:3 gdb_123958=T pbc="F F F"
C       -0.00890000       1.41290000       0.01300000
C        1.41780000       1.95770000       0.03100000
O        2.13970000       1.52500000       1.19600000
C        1.92220000       0.22000000       1.44110000
N        2.64960000      -0.48980000       2.26390000
O        2.07150000      -1.76120000       2.22730000
C        1.01410000      -1.76650000       1.38580000
C        0.86430000      -0.53060000       0.85100000
O       -0.02570000      -0.01950000      -0.03750000
H       -0.54980000       1.75560000       0.90520000
H       -0.53440000       1.75940000      -0.87940000
H        1.95490000       1.63390000      -0.86960000
H        1.40790000       3.04880000       0.06790000
H        0.48830000      -2.70010000       1.27530000
