21
Properties=species:S:1:pos:R:3 gdb_91042=T pbc="F F F"
C       -0.33190000       1.53730000      -0.08660000
C        0.08710000       0.08100000      -0.05460000
O        1.19260000      -0.26410000      -0.94700000
C        1.81840000      -1.08080000       0.07670000
C        3.01310000      -0.44900000       0.82160000
C        2.85620000       1.03630000       0.87690000
C        2.01550000       0.19600000       1.80440000
C        0.83100000      -0.56560000       1.14120000
C        0.07260000      -1.47290000       2.08290000
H       -0.56100000       1.83770000      -1.11440000
H       -1.24200000       1.66840000       0.50940000
H        0.43320000       2.20660000       0.30920000
H       -0.78170000      -0.54100000      -0.32320000
H        1.90390000      -2.13240000      -0.21000000
H        3.95300000      -0.94930000       1.02090000
H        3.66510000       1.56110000       1.37610000
H        2.44000000       1.55600000       0.02410000
H        2.10810000       0.30300000       2.87940000
H       -0.54150000      -0.89230000       2.78220000
H       -0.59110000      -2.15050000       1.53530000
H        0.76020000      -2.08190000       2.68040000
