16
Properties=species:S:1:pos:R:3 gdb_64531=T pbc="F F F"
O        0.07090000       1.46270000      -0.05170000
C        0.03570000       0.07770000      -0.02250000
C        0.99230000      -0.51510000      -1.02440000
O        1.67120000       0.19930000      -1.72820000
C       -0.01530000      -0.60690000       1.36580000
C       -1.51650000      -0.25710000       1.59720000
C       -1.78870000      -1.73250000       1.87310000
N       -0.73540000      -1.84790000       0.77220000
C       -1.35280000      -0.59960000       0.08550000
H        0.72620000       1.68790000      -0.73290000
H        1.03660000      -1.61620000      -1.07760000
H        0.77370000      -0.72160000       2.11110000
H       -1.93640000       0.64780000       2.04110000
H       -1.46240000      -2.15080000       2.83070000
H       -2.76200000      -2.14370000       1.58660000
H       -2.13240000      -0.70570000      -0.67080000
