25
Properties=species:S:1:pos:R:3 gdb_123147=T pbc="F F F"
C        0.00210000       1.53190000      -0.04860000
C       -0.00740000       0.01230000      -0.03480000
O        0.68350000      -0.45400000      -1.17310000
C        0.73410000      -1.86140000      -1.26000000
C        1.48200000      -2.24890000      -2.52800000
C        1.60290000      -3.76620000      -2.69560000
C        2.30960000      -4.17820000      -3.98690000
C        2.49070000      -5.69300000      -4.09170000
O        1.51580000      -3.68160000      -5.06350000
H        1.02880000       1.90880000      -0.03280000
H       -0.48640000       1.90990000      -0.95130000
H       -0.52680000       1.92600000       0.82450000
H        0.47000000      -0.36840000       0.88510000
H       -1.04410000      -0.36740000      -0.03520000
H        1.23700000      -2.28140000      -0.37000000
H       -0.28740000      -2.28160000      -1.27450000
H        0.96540000      -1.82490000      -3.39360000
H        2.47950000      -1.79300000      -2.49790000
H        2.15080000      -4.19700000      -1.84800000
H        0.60470000      -4.22430000      -2.69470000
H        3.30410000      -3.69940000      -4.00630000
H        2.98640000      -5.96300000      -5.03150000
H        3.10650000      -6.07600000      -3.27110000
H        1.51870000      -6.19600000      -4.06380000
H        1.95720000      -3.90720000      -5.88800000
