23
Properties=species:S:1:pos:R:3 gdb_76916=T pbc="F F F"
C       -0.12410000       1.54260000       0.19010000
C        0.08760000       0.05200000       0.03220000
C        0.65240000      -0.58260000      -1.23840000
C        1.05570000       0.20480000      -2.44490000
C        1.61250000      -0.51110000      -3.65340000
C        0.23730000       0.10550000      -3.71100000
C        1.44780000      -0.61980000       0.03950000
C        2.73590000       0.15250000       0.21580000
O        1.49840000      -1.90940000       0.61000000
H        0.65940000       2.13430000      -0.28990000
H       -1.07820000       1.84920000      -0.25300000
H       -0.14530000       1.82820000       1.24810000
H       -0.68140000      -0.55180000       0.50860000
H        0.20940000      -1.54510000      -1.48350000
H        1.48330000       1.18230000      -2.24720000
H        2.41440000      -0.03920000      -4.21050000
H        1.68160000      -1.59300000      -3.60710000
H       -0.61840000      -0.56180000      -3.70480000
H        0.09690000       1.00050000      -4.30720000
H        2.71160000       1.13130000      -0.26780000
H        2.94370000       0.31810000       1.28070000
H        3.57200000      -0.41530000      -0.20430000
H        1.53740000      -1.80350000       1.56760000
