16
Properties=species:S:1:pos:R:3 gdb_2352=T pbc="F F F"
N       -0.22520000       1.33680000       0.62290000
C        0.00590000       0.25410000      -0.17530000
O        1.08760000       0.05260000      -0.69820000
C       -1.16880000      -0.68540000      -0.37180000
C       -1.50980000      -1.05910000      -1.84680000
C       -1.68870000      -2.53450000      -1.40490000
C       -0.88740000      -2.19850000      -0.12060000
H        0.52740000       1.98700000       0.78040000
H       -1.11470000       1.50800000       1.05600000
H       -2.05790000      -0.34900000       0.17080000
H       -2.35830000      -0.55000000      -2.30970000
H       -0.62220000      -0.92810000      -2.47020000
H       -2.73390000      -2.77060000      -1.18380000
H       -1.28940000      -3.31080000      -2.06130000
H        0.17970000      -2.39610000      -0.24620000
H       -1.22700000      -2.62100000       0.82780000
