18
Properties=species:S:1:pos:R:3 gdb_80078=T pbc="F F F"
O        0.25470000       1.36190000      -0.06520000
C        0.04920000       0.00140000      -0.00260000
C       -0.45020000      -0.72180000       1.25650000
C       -0.89600000       0.03300000       2.43880000
C       -1.99990000       0.78960000       2.48230000
C       -2.92260000       0.90050000       1.33100000
N       -2.45060000       1.65770000       0.13800000
C       -2.57580000       0.18190000       0.06950000
C       -1.31790000      -0.63380000      -0.01120000
H       -0.62050000       1.79120000       0.01510000
H        0.82510000      -0.53970000      -0.53890000
H        0.03540000      -1.67090000       1.46500000
H       -0.26690000      -0.03680000       3.32240000
H       -2.26130000       1.32690000       3.38860000
H       -3.97650000       1.01900000       1.56940000
H       -3.22870000       2.10500000      -0.33750000
H       -3.40580000      -0.20380000      -0.51480000
H       -1.42890000      -1.54770000      -0.58480000
