22
Properties=species:S:1:pos:R:3 gdb_83736=T pbc="F F F"
C       -0.01050000       1.52030000      -0.05520000
C       -0.01770000       0.01190000      -0.10600000
C        0.72710000      -0.74800000      -1.14760000
N        1.24930000      -0.65460000       0.23420000
C        1.08740000      -1.99460000       0.83560000
C        0.13770000      -2.82280000      -0.06630000
C        0.30410000      -2.16380000      -1.43480000
C       -0.54030000      -2.52920000      -2.62550000
C        0.92320000      -2.90280000      -2.59670000
H        0.93620000       1.91200000      -0.43720000
H       -0.82700000       1.93640000      -0.65570000
H       -0.13020000       1.87770000       0.97340000
H       -0.93370000      -0.44990000       0.26260000
H        1.27760000      -0.20970000      -1.91680000
H        2.08100000      -2.45430000       0.86790000
H        0.72980000      -1.90560000       1.86630000
H        0.39580000      -3.88520000      -0.07500000
H       -0.89980000      -2.74900000       0.27710000
H       -1.27340000      -3.32100000      -2.50820000
H       -0.85120000      -1.73460000      -3.29610000
H        1.60190000      -2.35970000      -3.24690000
H        1.18180000      -3.94740000      -2.45650000
