17
Properties=species:S:1:pos:R:3 gdb_11643=T pbc="F F F"
C        0.05060000       1.49820000      -0.16010000
N        0.01450000       0.05060000       0.01930000
C       -1.04240000      -0.55670000       0.92870000
C       -0.12980000      -1.80730000       0.98610000
C        0.77430000      -0.55590000       1.20810000
C       -0.31830000      -0.02580000       2.19590000
C        2.20040000      -0.48480000       1.33580000
C        3.39540000      -0.41160000       1.45090000
H        1.03530000       1.76850000      -0.55410000
H       -0.69550000       1.76480000      -0.91600000
H       -0.13730000       2.11490000       0.73170000
H       -2.10250000      -0.50950000       0.68010000
H       -0.25030000      -2.47640000       1.83900000
H        0.02570000      -2.32290000       0.03900000
H       -0.33580000       1.04690000       2.38220000
H       -0.45120000      -0.58510000       3.12540000
H        4.45120000      -0.35250000       1.54930000
