17
Properties=species:S:1:pos:R:3 gdb_95099=T pbc="F F F"
C        0.10720000       1.56920000      -0.03200000
C        0.05510000       0.04470000       0.01610000
N        0.76620000      -0.55710000      -1.12200000
C        1.27500000      -1.88010000      -0.75250000
C        1.54160000      -1.74600000       0.73140000
O        2.21100000      -0.54210000       1.10850000
C        0.78160000      -0.57680000       1.20790000
C        0.21580000      -0.46690000       2.52890000
N       -0.26950000      -0.36070000       3.57260000
H        1.14670000       1.90530000      -0.03120000
H       -0.37380000       1.93740000      -0.94310000
H       -0.41550000       2.00460000       0.82540000
H       -0.99670000      -0.28550000       0.09590000
H        0.20370000      -0.57060000      -1.96240000
H        0.55750000      -2.70850000      -0.88680000
H        2.17850000      -2.12170000      -1.32430000
H        1.73980000      -2.61520000       1.35110000
