19
Properties=species:S:1:pos:R:3 gdb_50569=T pbc="F F F"
O       -0.32660000       0.11700000       0.05190000
C       -0.05340000       1.27630000       0.21930000
C        1.32050000       1.88780000      -0.01400000
O        2.34120000       0.91820000      -0.08580000
C        2.70960000       0.46750000      -1.39070000
C        2.53070000       1.56580000      -2.44280000
C        2.75810000       2.94780000      -1.76420000
C        1.29210000       2.79860000      -1.26460000
C        1.02590000       1.93410000      -2.52850000
H       -0.82220000       2.01550000       0.55100000
H        1.54850000       2.50880000       0.86670000
H        3.76200000       0.17380000      -1.30820000
H        2.12480000      -0.42220000      -1.66300000
H        3.06890000       1.32090000      -3.36120000
H        3.54900000       3.03190000      -1.01520000
H        2.84920000       3.75190000      -2.49810000
H        0.68550000       3.68990000      -1.08950000
H        0.80090000       2.55690000      -3.39790000
H        0.29650000       1.12240000      -2.46170000
