19
Properties=species:S:1:pos:R:3 gdb_41538=T pbc="F F F"
C        0.16680000       1.36300000       0.45880000
O        1.34240000       1.51120000      -0.37420000
C        1.19170000       0.16360000      -0.90820000
C        2.42610000      -0.72930000      -0.76570000
C        2.01260000      -2.20340000      -0.54420000
O        0.75590000      -2.51330000      -1.14090000
C       -0.33650000      -2.51480000      -0.24160000
C       -0.62620000      -1.17100000       0.37920000
C        0.04670000      -0.08320000       0.04450000
H        0.37740000       1.55970000       1.51840000
H       -0.65130000       2.02200000       0.13450000
H        0.87670000       0.20970000      -1.95880000
H        3.05690000      -0.63320000      -1.65500000
H        3.01490000      -0.37990000       0.08870000
H        2.75130000      -2.87590000      -0.99310000
H        1.97630000      -2.42830000       0.52980000
H       -1.20030000      -2.86980000      -0.81860000
H       -0.17050000      -3.25600000       0.56140000
H       -1.40330000      -1.14290000       1.14080000
