19
Properties=species:S:1:pos:R:3 gdb_91117=T pbc="F F F"
O        0.06910000       1.41990000      -0.16510000
C        0.03790000       0.02000000      -0.01000000
C        0.71700000      -0.53580000       1.27110000
C       -0.05510000      -1.81880000       1.56620000
C       -1.46440000      -1.72000000       2.12110000
C       -2.07580000      -0.34610000       2.32670000
O       -2.15850000       0.26600000       1.04160000
C       -1.41460000      -0.48780000       0.08500000
C       -1.26160000      -1.90500000       0.64510000
H        0.98510000       1.68770000      -0.28460000
H        0.48980000      -0.48440000      -0.88150000
H        1.78040000      -0.73890000       1.11360000
H        0.64260000       0.20450000       2.07570000
H        0.49890000      -2.71700000       1.81460000
H       -1.82060000      -2.53990000       2.73410000
H       -3.08770000      -0.42580000       2.74360000
H       -1.48280000       0.28470000       3.00520000
H       -1.93990000      -0.41980000      -0.87050000
H       -1.55940000      -2.78750000       0.09480000
