17
Properties=species:S:1:pos:R:3 gdb_116109=T pbc="F F F"
O        0.08570000       1.41390000       0.16850000
C        0.04590000       0.01690000      -0.01650000
C       -1.38310000      -0.50820000      -0.03280000
C       -1.49150000      -2.01830000      -0.23280000
C       -2.83700000      -2.60090000       0.18380000
O       -3.21830000      -3.68200000      -0.16420000
O       -3.58360000      -1.87360000       1.05620000
C       -3.29880000      -0.48580000       1.27420000
O       -1.94710000      -0.18520000       1.24360000
H       -0.41040000       1.59660000       0.97480000
H        0.52470000      -0.19580000      -0.97770000
H        0.60770000      -0.51750000       0.76690000
H       -1.94930000       0.02840000      -0.81080000
H       -1.30730000      -2.31290000      -1.26840000
H       -0.74020000      -2.52470000       0.38660000
H       -3.85040000       0.08970000       0.51430000
H       -3.67440000      -0.25600000       2.27250000
