17
Properties=species:S:1:pos:R:3 gdb_126125=T pbc="F F F"
C       -0.05760000       1.50540000       0.08830000
C        0.02720000      -0.01300000      -0.04050000
C        0.74770000      -0.46500000      -1.30040000
O        1.20270000       0.31860000      -2.11020000
C        0.88620000      -1.92420000      -1.52470000
N        0.40180000      -2.82480000      -0.66180000
N        0.71870000      -4.00500000      -1.20320000
C        1.38930000      -3.89590000      -2.38290000
C        1.51820000      -2.55050000      -2.62720000
H        0.93920000       1.95360000       0.11000000
H       -0.58870000       1.94210000      -0.76150000
H       -0.58300000       1.78470000       1.00590000
H        0.53950000      -0.46430000       0.81860000
H       -0.96780000      -0.47570000      -0.03920000
H        0.45180000      -4.84890000      -0.72320000
H        1.70880000      -4.76670000      -2.93290000
H        1.99030000      -2.06370000      -3.46320000
