20
Properties=species:S:1:pos:R:3 gdb_18095=T pbc="F F F"
C        0.01110000       1.51590000       0.06600000
C        1.52040000       1.91010000       0.09640000
C        2.16800000       0.64910000       0.59590000
C        1.33580000      -0.39360000       0.59840000
C       -0.03860000      -0.04320000       0.10100000
C        2.01220000      -1.67780000       0.98860000
C        3.38750000      -1.17550000       1.52770000
C        3.57110000       0.27540000       0.98400000
H       -0.48130000       1.91100000       0.96000000
H       -0.51440000       1.93320000      -0.79700000
H        1.89390000       2.17770000      -0.90310000
H        1.70660000       2.78400000       0.73240000
H       -0.84790000      -0.41660000       0.74000000
H       -0.21910000      -0.46970000      -0.89680000
H        1.46070000      -2.25700000       1.73920000
H        2.13080000      -2.34250000       0.12010000
H        3.35600000      -1.14770000       2.62130000
H        4.21350000      -1.83540000       1.25000000
H        4.24350000       0.30460000       0.11380000
H        4.01540000       0.94370000       1.73150000
