15
Properties=species:S:1:pos:R:3 gdb_2313=T pbc="F F F"
C        0.11700000       1.50680000      -0.22120000
C       -0.03020000       0.04310000       0.10950000
O        1.15790000      -0.75940000       0.12530000
C        0.43890000      -0.60070000       1.34760000
C        1.13560000       0.13850000       2.48010000
C        1.99970000      -0.73790000       3.26410000
C        2.69630000      -1.47770000       3.90500000
H        0.95840000       1.96510000       0.30170000
H        0.28160000       1.63250000      -1.29640000
H       -0.79710000       2.05000000       0.04190000
H       -0.87030000      -0.44270000      -0.39230000
H       -0.08260000      -1.50180000       1.67460000
H        1.72240000       0.96720000       2.07250000
H        0.37170000       0.57990000       3.13480000
H        3.32170000      -2.12460000       4.46870000
