19
Properties=species:S:1:pos:R:3 gdb_65629=T pbc="F F F"
O       -0.09550000       1.32800000       0.13290000
C        0.02070000      -0.07990000       0.02630000
C        0.33770000      -0.87510000       1.34820000
C       -0.93460000      -1.74320000       1.13920000
C       -2.16540000      -1.28060000       1.95210000
C       -2.45440000      -0.18910000       0.87580000
C       -1.35600000      -0.79900000      -0.04320000
C        0.90670000      -0.45160000      -1.07270000
C        1.65750000      -0.74010000      -1.96730000
H        0.78060000       1.70950000       0.01300000
H        1.28960000      -1.40830000       1.34340000
H        0.29240000      -0.22520000       2.22650000
H       -0.76460000      -2.81250000       1.01500000
H       -2.94990000      -2.04130000       1.99160000
H       -1.97080000      -0.93630000       2.97250000
H       -3.45900000      -0.22180000       0.45000000
H       -2.24430000       0.83640000       1.18220000
H       -1.67250000      -1.14810000      -1.02540000
H        2.31190000      -0.99600000      -2.76380000
