20
Properties=species:S:1:pos:R:3 gdb_7597=T pbc="F F F"
C        0.14430000       1.28530000      -0.48480000
C        0.04270000      -0.01740000       0.30910000
O        0.47150000       0.14050000       1.66030000
C       -1.36260000      -0.62030000       0.25410000
C       -2.43680000       0.13520000       1.01130000
O       -1.75280000      -1.07550000      -1.05360000
C       -1.57420000      -2.05590000      -0.01870000
C       -0.50850000      -3.10290000      -0.21650000
H        1.17530000       1.64920000      -0.47520000
H       -0.16590000       1.12380000      -1.52070000
H       -0.49590000       2.06700000      -0.05870000
H        0.74260000      -0.73470000      -0.12610000
H        0.08940000       0.95680000       1.99890000
H       -2.53710000       1.16240000       0.64520000
H       -3.40410000      -0.35660000       0.88700000
H       -2.20180000       0.17010000       2.07960000
H       -2.51990000      -2.46530000       0.34610000
H        0.41440000      -2.68680000      -0.62350000
H       -0.28060000      -3.59640000       0.73430000
H       -0.86540000      -3.86770000      -0.91440000
