14
Properties=species:S:1:pos:R:3 gdb_105169=T pbc="F F F"
O        0.18920000       1.35680000      -0.44460000
C        0.12140000       0.04090000       0.05040000
C       -1.30480000      -0.48330000       0.07780000
O       -1.83190000      -1.11870000      -1.09660000
C       -1.61640000      -1.94100000       0.03760000
C       -0.54620000      -2.91320000      -0.03240000
N        0.29390000      -3.70600000      -0.06210000
C       -2.32730000       0.37030000       0.77700000
O       -2.04130000       1.35250000       1.41360000
H       -0.22580000       1.92600000       0.21470000
H        0.71720000      -0.58970000      -0.61420000
H        0.53930000      -0.04610000       1.06450000
H       -2.51800000      -2.30810000       0.52690000
H       -3.37600000       0.02960000       0.64530000
