19
Properties=species:S:1:pos:R:3 gdb_111704=T pbc="F F F"
C        0.18470000       1.45630000       0.15270000
C       -0.17930000      -0.01340000      -0.09100000
C        0.57920000      -0.59010000      -1.26810000
C        1.92640000      -1.22400000      -1.17850000
N        2.07340000      -1.92970000       0.10290000
C        0.98900000      -2.88810000      -0.28940000
C        0.69860000      -2.08470000      -1.57020000
C        0.31180000      -2.65120000      -2.81490000
N        0.00180000      -3.12000000      -3.82840000
H        1.25080000       1.56260000       0.37710000
H       -0.03670000       2.07410000      -0.72450000
H       -0.37860000       1.86340000       0.99750000
H        0.04360000      -0.59400000       0.80820000
H       -1.25560000      -0.10610000      -0.27870000
H        0.45890000      -0.03170000      -2.19500000
H        2.77820000      -0.93200000      -1.78150000
H        2.96620000      -2.40590000       0.16000000
H        1.36970000      -3.88410000      -0.52830000
H        0.17760000      -2.97380000       0.44000000
