23
Properties=species:S:1:pos:R:3 gdb_90714=T pbc="F F F"
C        0.44470000       1.59290000      -0.04290000
C        0.10740000       0.11120000       0.01210000
C        0.86310000      -0.87740000      -0.93800000
C        1.25550000      -1.76110000       0.27910000
C        0.61900000      -0.70740000       1.22540000
O        1.91750000      -0.29900000       1.70080000
C        2.57830000      -1.41260000       1.01120000
C        2.96480000      -2.48170000       2.03150000
C        3.78790000      -0.93940000       0.22180000
H        1.50700000       1.75300000       0.15990000
H        0.21070000       2.01210000      -1.02750000
H       -0.12440000       2.15700000       0.70440000
H       -0.97510000      -0.03270000      -0.08550000
H        0.21550000      -1.38400000      -1.65730000
H        1.70050000      -0.44410000      -1.49000000
H        0.97590000      -2.81410000       0.24720000
H       -0.07370000      -0.91600000       2.04670000
H        2.08760000      -2.82320000       2.58880000
H        3.41650000      -3.34820000       1.53590000
H        3.68690000      -2.07640000       2.74710000
H        4.55440000      -0.56420000       0.90800000
H        4.22260000      -1.76490000      -0.35210000
H        3.53430000      -0.13210000      -0.46790000
