21
Properties=species:S:1:pos:R:3 gdb_52260=T pbc="F F F"
O       -0.71340000       0.88310000       0.82790000
C        0.00480000       1.04270000      -0.12510000
C        1.30620000       1.80930000      -0.11760000
C        1.30430000       2.95050000      -1.15160000
C        2.63610000       3.70180000      -1.23490000
C        3.84610000       2.85100000      -1.71620000
C        4.67070000       3.83560000      -2.51090000
C        4.00030000       4.95690000      -2.76780000
C        2.60490000       4.92570000      -2.19300000
H       -0.26690000       0.61840000      -1.12160000
H        1.48560000       2.18440000       0.89450000
H        2.10720000       1.09800000      -0.36530000
H        1.05580000       2.54590000      -2.14290000
H        0.50400000       3.65770000      -0.89900000
H        2.87980000       4.07780000      -0.23330000
H        4.40060000       2.40160000      -0.88460000
H        3.52340000       2.01440000      -2.35580000
H        5.67580000       3.61290000      -2.85190000
H        4.37380000       5.79110000      -3.35160000
H        1.86020000       4.79160000      -2.99260000
H        2.32920000       5.85050000      -1.67320000
