20
Properties=species:S:1:pos:R:3 gdb_100705=T pbc="F F F"
C       -0.04780000       1.58660000      -0.04180000
C       -0.03580000       0.05370000      -0.05650000
C       -1.43370000      -0.57810000       0.13110000
N       -1.29410000      -2.04270000       0.27520000
H       -2.22100000      -2.44920000       0.37010000
H       -0.18340000      -2.12510000      -1.03500000
H       -0.80730000      -2.25030000       1.14580000
C       -2.24000000       0.01520000       1.29730000
O       -3.46150000      -0.69180000       1.48280000
C        0.68020000      -0.45010000      -1.33900000
O        0.46710000      -1.72430000      -1.67480000
O        1.40810000       0.26150000      -1.98340000
H        0.93620000       1.95720000      -0.32900000
H       -0.76790000       1.98160000      -0.76650000
H       -0.30080000       1.98040000       0.94600000
H        0.58990000      -0.29440000       0.78170000
H       -2.01150000      -0.41480000      -0.79080000
H       -1.67660000      -0.10140000       2.23190000
H       -2.42050000       1.08630000       1.15050000
H       -4.09450000      -0.36940000       0.83340000
