17
Properties=species:S:1:pos:R:3 gdb_60730=T pbc="F F F"
C       -0.26670000       1.17400000      -1.41370000
C        0.19420000       0.07620000      -0.42910000
C       -0.96930000      -0.22000000       0.52150000
O       -0.99420000       0.10360000       1.67690000
C        0.52360000      -1.20530000      -1.18690000
O       -0.27280000      -1.71720000      -1.94340000
C        1.86040000      -1.85360000      -0.95900000
C        3.10700000      -1.05930000      -1.00710000
O        2.58100000      -1.51660000       0.22720000
H        0.54350000       1.44360000      -2.09730000
H       -1.10880000       0.81690000      -2.01160000
H       -0.56930000       2.07170000      -0.86850000
H        1.03640000       0.40670000       0.18050000
H       -1.82040000      -0.74190000       0.03230000
H        1.89690000      -2.89920000      -1.25880000
H        4.01790000      -1.54820000      -1.34720000
H        3.05920000       0.01610000      -1.17090000
