25
Properties=species:S:1:pos:R:3 gdb_58765=T pbc="F F F"
C        0.05090000       1.49910000      -0.13560000
C       -0.00130000      -0.02350000       0.06590000
C        0.75910000      -0.43830000       1.33520000
C       -1.42880000      -0.55680000       0.05090000
C       -2.31960000      -0.46790000      -1.23200000
C       -3.10220000      -1.61660000      -0.53930000
C       -1.72590000      -2.09190000       0.00070000
C       -3.69570000      -0.90130000       0.68890000
C       -2.43160000      -0.09660000       1.14010000
H        1.08690000       1.84480000      -0.21460000
H       -0.47290000       1.80100000      -1.04820000
H       -0.40920000       2.02930000       0.70560000
H        0.51320000      -0.48510000      -0.78980000
H        0.74250000      -1.52380000       1.47610000
H        1.80670000      -0.12430000       1.28010000
H        0.32480000       0.02200000       2.22950000
H       -2.84960000       0.46870000      -1.43440000
H       -1.78610000      -0.79840000      -2.12760000
H       -3.76100000      -2.28190000      -1.09850000
H       -1.12640000      -2.60290000      -0.75790000
H       -1.70680000      -2.65710000       0.93830000
H       -4.53630000      -0.25170000       0.42680000
H       -4.04200000      -1.60370000       1.45300000
H       -2.10290000      -0.36640000       2.14780000
H       -2.59680000       0.98440000       1.12230000
