20
Properties=species:S:1:pos:R:3 gdb_117168=T pbc="F F F"
C       -0.18880000       1.03500000       0.63470000
C       -0.60820000       0.22680000      -0.59600000
N       -1.73120000      -0.66550000      -0.34060000
C       -1.56410000      -1.94720000       0.04570000
O       -0.47850000      -2.50700000       0.15550000
C       -2.84820000      -2.75100000       0.33760000
O       -2.48550000      -3.98440000       0.88900000
C       -3.80910000      -2.02670000       1.29590000
O       -4.40910000      -0.87590000       0.69940000
H        0.64720000       1.69760000       0.38910000
H       -1.01390000       1.65300000       1.00370000
H        0.12760000       0.36660000       1.44010000
H       -0.88490000       0.89630000      -1.41760000
H        0.22050000      -0.39750000      -0.93720000
H       -2.66570000      -0.28590000      -0.24610000
H       -3.37650000      -2.89140000      -0.62450000
H       -1.51390000      -4.00220000       0.80900000
H       -4.56550000      -2.74470000       1.63470000
H       -3.26710000      -1.67080000       2.17660000
H       -5.05920000      -1.18080000       0.05750000
