20
Properties=species:S:1:pos:R:3 gdb_86232=T pbc="F F F"
C       -0.09690000       1.54620000      -0.05810000
C       -0.02210000       0.02470000       0.04160000
C        0.57640000      -0.67740000      -1.20610000
C        1.41570000      -1.87440000      -0.70330000
O        2.77890000      -1.53140000      -0.91860000
C        1.08130000      -1.99050000       0.79680000
C        0.80210000      -0.53640000       1.24180000
C        2.03190000       0.21400000       1.50910000
N        2.98070000       0.82360000       1.76360000
H        0.89960000       1.98140000      -0.18040000
H       -0.70480000       1.84350000      -0.91850000
H       -0.54900000       1.98570000       0.83710000
H       -1.03710000      -0.36210000       0.19640000
H       -0.21170000      -0.99090000      -1.89530000
H        1.24590000      -0.00940000      -1.75450000
H        1.16970000      -2.80480000      -1.23420000
H        3.33390000      -2.20340000      -0.50930000
H        0.16080000      -2.57040000       0.92840000
H        1.87050000      -2.48260000       1.37200000
H        0.21150000      -0.50590000       2.16330000
