14
Properties=species:S:1:pos:R:3 gdb_133597=T pbc="F F F"
F       -0.15980000       0.09910000      -0.18530000
C       -0.02060000       1.42630000      -0.02040000
F        1.28720000       1.69930000       0.00490000
F       -0.54230000       2.01780000      -1.10860000
C       -0.70900000       1.89390000       1.24030000
C       -2.19670000       1.47970000       1.44820000
C       -1.86190000       0.91940000       2.86450000
C       -0.37470000       1.12450000       2.54940000
O        0.64790000       0.78790000       3.06150000
H       -0.52870000       2.96700000       1.35020000
H       -2.91510000       2.29780000       1.41390000
H       -2.50780000       0.70110000       0.75070000
H       -2.19490000       1.55630000       3.69040000
H       -2.15470000      -0.11020000       3.08410000
