20
Properties=species:S:1:pos:R:3 gdb_121655=T pbc="F F F"
C       -0.82210000       0.63230000      -1.07820000
C        0.50540000      -0.06140000      -0.82920000
O        0.25390000      -1.45860000      -0.69650000
C        1.41640000      -2.23490000      -0.45080000
C        2.18340000      -2.43100000      -1.76080000
O        3.04280000      -1.66350000      -2.14020000
N        1.80940000      -3.56130000      -2.47550000
C        0.46970000      -3.82430000      -2.97450000
C        1.62100000      -3.56680000      -3.90550000
H       -1.27920000       0.27280000      -2.00490000
H       -1.51840000       0.44160000      -0.25670000
H       -0.67240000       1.71260000      -1.16460000
H        1.21030000       0.12760000      -1.64960000
H        0.97500000       0.31240000       0.09480000
H        2.07890000      -1.74510000       0.27490000
H        1.07540000      -3.19330000      -0.05040000
H        0.10300000      -4.83800000      -2.83770000
H       -0.26930000      -3.03970000      -2.84470000
H        1.67110000      -2.60570000      -4.41000000
H        2.07120000      -4.39670000      -4.44220000
