21
Properties=species:S:1:pos:R:3 gdb_102413=T pbc="F F F"
O       -0.02640000       1.41050000       0.01020000
C        0.01250000      -0.01390000       0.00230000
C       -1.43400000      -0.53470000       0.01300000
C       -1.40050000      -2.07160000       0.00420000
O       -2.74370000      -2.54690000       0.01460000
C       -2.16220000      -0.03350000       1.27070000
O       -1.46020000      -0.51420000       2.41370000
C       -2.18570000      -0.01960000      -1.22520000
O       -1.50570000      -0.48820000      -2.38650000
H        0.87940000       1.73040000       0.00330000
H        0.51950000      -0.38420000      -0.89810000
H        0.53610000      -0.39360000       0.88920000
H       -0.87420000      -2.41290000      -0.89660000
H       -0.85670000      -2.42290000       0.89060000
H       -2.71700000      -3.50720000       0.00920000
H       -2.18200000       1.06400000       1.25950000
H       -3.19340000      -0.40980000       1.26110000
H       -1.91920000      -0.19840000       3.19640000
H       -3.21670000      -0.39550000      -1.20000000
H       -2.20440000       1.07760000      -1.20180000
H       -1.97950000      -0.16390000      -3.15680000
