14
Properties=species:S:1:pos:R:3 gdb_25971=T pbc="F F F"
C       -0.20600000       1.44450000      -0.02780000
C        0.30100000       0.03070000      -0.05480000
O        1.24490000      -0.42130000       0.51700000
O       -0.52030000      -0.73620000      -0.88050000
C       -0.22300000      -2.04810000      -1.00380000
C        0.28160000      -2.79680000      -2.00890000
N        0.27970000      -4.12850000      -1.60580000
C       -0.21240000      -4.10220000      -0.41260000
O       -0.55360000      -2.86600000       0.03330000
H        0.45510000       2.05450000       0.58580000
H       -0.25620000       1.84360000      -1.04450000
H       -1.22090000       1.46450000       0.37970000
H        0.63990000      -2.48170000      -2.97430000
H       -0.38450000      -4.92280000       0.26530000
