17
Properties=species:S:1:pos:R:3 gdb_109525=T pbc="F F F"
C        0.09460000       1.13760000      -0.57540000
N       -0.20860000       0.21830000       0.51990000
C       -1.41890000      -0.50230000       0.34900000
C       -1.54390000      -1.77620000      -0.50180000
C       -0.39750000      -2.30790000      -1.16860000
C        0.57520000      -2.73940000      -1.72970000
C       -1.62860000      -1.82590000       1.04350000
C       -0.55360000      -2.41070000       1.79200000
N        0.31970000      -2.86770000       2.39800000
H        1.03320000       1.65290000      -0.35660000
H        0.18160000       0.64810000      -1.55690000
H       -0.69390000       1.89560000      -0.64010000
H        0.56970000      -0.40820000       0.69260000
H       -2.29520000       0.14110000       0.32140000
H       -2.49630000      -1.93980000      -0.99790000
H        1.42990000      -3.13660000      -2.21920000
H       -2.61190000      -2.01860000       1.45820000
