18
Properties=species:S:1:pos:R:3 gdb_39872=T pbc="F F F"
C        0.02350000       1.51860000      -0.00570000
N        1.23510000       0.66330000       0.02720000
C       -0.09390000       0.05110000       0.01730000
C       -0.51660000      -0.93930000       1.10920000
C       -2.06140000      -0.98090000       1.28420000
C       -2.17970000      -1.74630000      -0.05550000
O       -2.02560000      -0.87000000      -1.19810000
C       -0.58480000      -0.90010000      -1.07670000
C       -0.65300000      -2.04110000      -0.01910000
H       -0.14600000       2.09430000       0.90040000
H       -0.22760000       2.03820000      -0.92720000
H        1.64820000       0.61830000      -0.90290000
H        0.12420000      -1.01620000       1.98620000
H       -2.33720000      -1.63360000       2.11920000
H       -2.60150000      -0.03390000       1.36660000
H       -2.98910000      -2.46350000      -0.20190000
H       -0.08280000      -0.91420000      -2.04880000
H       -0.15620000      -3.00570000      -0.06240000
