18
Properties=species:S:1:pos:R:3 gdb_84759=T pbc="F F F"
C       -0.87810000       1.29680000       0.00790000
C        0.01560000       0.02860000      -0.01390000
C        0.76840000      -0.06520000      -1.31250000
C        2.06490000       0.09050000      -1.58350000
N        3.14600000       0.33790000      -0.74310000
C        3.27690000       0.34350000       0.63270000
O        4.37780000       0.54890000       1.11870000
C        2.11440000       0.09150000       1.51340000
C        0.81040000      -0.04250000       1.25910000
H       -0.26060000       2.19920000      -0.01150000
H       -1.53710000       1.31280000      -0.86560000
H       -1.50320000       1.32420000       0.90670000
H       -0.67840000      -0.82620000       0.01970000
H        0.13840000      -0.25390000      -2.17730000
H        2.38250000       0.01980000      -2.61910000
H        4.03780000       0.49470000      -1.18950000
H        2.44490000       0.03580000       2.54590000
H        0.17860000      -0.20130000       2.13330000
