16
Properties=species:S:1:pos:R:3 gdb_85124=T pbc="F F F"
C       -0.33990000       1.30260000      -0.00610000
C        0.13710000      -0.12660000       0.01600000
O        1.39850000      -0.31050000      -0.74950000
C        2.08770000      -0.62840000       0.38000000
N        3.30780000      -0.77730000       0.63080000
C        0.87070000      -0.62590000       1.29520000
O        0.94760000       0.22010000       2.40940000
C        0.45060000      -2.02610000       1.74630000
O       -0.15880000      -2.80380000       1.06280000
H        0.41030000       1.97820000       0.41110000
H       -0.56560000       1.60770000      -1.03160000
H       -1.25210000       1.39580000       0.59110000
H       -0.60150000      -0.83960000      -0.35310000
H        3.89250000      -0.63630000      -0.19450000
H        1.86990000       0.48210000       2.51690000
H        0.76530000      -2.25190000       2.78670000
