18
Properties=species:S:1:pos:R:3 gdb_18889=T pbc="F F F"
C       -0.01740000       1.45840000       0.07160000
C       -0.04120000      -0.04730000       0.01240000
C       -1.27390000      -0.80340000      -0.45850000
C       -0.76200000      -2.22230000      -0.32120000
C        0.73160000      -2.27750000      -0.58950000
C        0.21710000      -2.32560000       0.83500000
C        0.69570000      -0.86990000       1.05860000
C        1.21150000      -0.82190000      -0.36850000
H        0.94870000       1.82600000       0.43280000
H       -0.19020000       1.89830000      -0.91740000
H       -0.79100000       1.84240000       0.74660000
H       -2.14460000      -0.60830000       0.17950000
H       -1.54060000      -0.55210000      -1.49230000
H       -1.37430000      -3.08080000      -0.57130000
H        1.22380000      -3.04270000      -1.17390000
H        0.23930000      -3.13460000       1.55200000
H        1.12440000      -0.45650000       1.96170000
H        2.10930000      -0.36480000      -0.76280000
