14
Properties=species:S:1:pos:R:3 gdb_19380=T pbc="F F F"
O        0.06250000       1.40530000       0.15000000
C        0.07340000      -0.00340000      -0.01340000
C       -1.30650000      -0.55260000      -0.16370000
O       -2.11710000      -0.71480000       1.00870000
C       -1.93290000      -1.83870000       0.14970000
C       -2.90200000      -1.66920000      -1.09230000
O       -3.63070000      -0.45780000      -0.92160000
C       -2.28950000      -0.37690000      -1.39660000
H       -0.46600000       1.59880000       0.93240000
H        0.65580000      -0.19780000      -0.92060000
H        0.57070000      -0.51440000       0.82420000
H       -1.53450000      -2.75490000       0.56840000
H       -3.31380000      -2.44470000      -1.72530000
H       -2.09340000       0.13210000      -2.33170000
