20
Properties=species:S:1:pos:R:3 gdb_82539=T pbc="F F F"
C       -0.08280000       1.52800000       0.07720000
N        0.11710000       0.08340000       0.12160000
C        1.38440000      -0.55210000      -0.15850000
C        2.59120000       0.25770000       0.35770000
C        1.94430000       0.19430000       1.75290000
C        2.59930000       0.12120000       3.05810000
O        1.84180000       1.27640000       2.67070000
C        0.75740000      -0.60590000       1.22820000
C        0.01970000      -1.68240000       1.96790000
H        0.73680000       2.13040000       0.48730000
H       -0.24660000       1.82230000      -0.96440000
H       -0.98850000       1.76710000       0.64220000
H        1.42430000      -1.32710000      -0.91670000
H        3.53120000      -0.29760000       0.30640000
H        2.73970000       1.25160000      -0.07260000
H        2.16120000      -0.47480000       3.85810000
H        3.67640000       0.26980000       3.12910000
H       -0.58920000      -1.25560000       2.77370000
H       -0.65050000      -2.21300000       1.28730000
H        0.71080000      -2.40380000       2.41650000
