17
Properties=species:S:1:pos:R:3 gdb_12744=T pbc="F F F"
C       -0.04340000       1.53360000       0.00270000
C        0.04130000       0.03580000       0.02740000
C       -0.84110000      -0.84310000       0.86930000
C        0.65030000      -0.93420000       1.04710000
C        1.24960000      -1.79640000      -0.06570000
C        0.64760000      -0.80030000      -1.12570000
C       -0.27120000      -1.33250000      -2.12370000
N       -1.01430000      -1.76420000      -2.89780000
H        0.91130000       1.98690000      -0.28830000
H       -0.80570000       1.87450000      -0.70790000
H       -0.31300000       1.92470000       0.98870000
H       -1.37230000      -0.32020000       1.65830000
H       -1.39900000      -1.66680000       0.42940000
H        1.13280000      -0.70790000       1.99010000
H        2.34030000      -1.79420000      -0.09650000
H        0.89280000      -2.82820000      -0.12330000
H        1.44390000      -0.25210000      -1.63610000
