14
Properties=species:S:1:pos:R:3 gdb_20368=T pbc="F F F"
C       -0.10630000       1.45000000      -0.12610000
C        1.28180000       0.92250000       0.06030000
C        0.10860000      -0.04190000       0.05920000
C       -0.30850000      -0.69860000       1.30690000
N       -0.25070000      -0.12830000       2.48590000
O       -0.74150000      -1.11360000       3.35430000
C       -1.03660000      -2.16290000       2.59020000
N       -0.80260000      -1.99260000       1.32920000
H       -0.56290000       1.97800000       0.70290000
H       -0.40890000       1.78670000      -1.11100000
H        1.94740000       0.89110000      -0.79460000
H        1.76440000       1.09350000       1.01540000
H       -0.01670000      -0.67790000      -0.80800000
H       -1.43470000      -3.03660000       3.08530000
