20
Properties=species:S:1:pos:R:3 gdb_90803=T pbc="F F F"
C       -0.66980000       1.42420000       0.02570000
C        0.06530000       0.08040000      -0.03110000
C        0.82880000      -0.10770000      -1.35400000
C        2.10670000      -0.89200000      -1.14500000
C        3.14140000      -0.47200000      -0.13300000
C        2.38790000      -1.76620000       0.05110000
N        1.78780000      -1.32150000       1.37390000
C        2.46570000       0.01020000       1.16380000
C        0.98500000      -0.09350000       1.16220000
H        0.03970000       2.25870000      -0.00400000
H       -1.34910000       1.53190000      -0.82650000
H       -1.26290000       1.51790000       0.94170000
H       -0.68430000      -0.71870000       0.05450000
H        0.18870000      -0.60800000      -2.08840000
H        1.08570000       0.87070000      -1.78120000
H        2.55920000      -1.29030000      -2.05030000
H        4.18350000      -0.30160000      -0.36750000
H        2.71180000      -2.79690000      -0.01800000
H        3.02030000       0.47650000       1.97270000
H        0.52370000       0.19630000       2.10620000
