19
Properties=species:S:1:pos:R:3 gdb_39228=T pbc="F F F"
C       -0.00380000       1.48800000       0.07910000
C        1.31980000       0.76650000       0.00110000
O        2.16090000       0.44110000       1.06860000
C        2.39580000      -0.98680000       1.03650000
C        1.07120000      -1.82140000       0.88680000
C       -0.05430000      -0.84200000       1.27340000
C        0.02390000      -0.01340000      -0.01330000
C        0.00180000      -1.07570000      -1.08260000
C        0.66120000      -2.12210000      -0.57030000
H       -0.34630000       1.90090000       1.02260000
H       -0.25380000       2.09280000      -0.78750000
H        1.84000000       0.86010000      -0.95370000
H        3.10240000      -1.22520000       0.22860000
H        2.87580000      -1.21230000       1.99230000
H        1.14110000      -2.72200000       1.50190000
H       -1.02070000      -1.34580000       1.35880000
H        0.14690000      -0.27180000       2.18130000
H       -0.39190000      -0.96840000      -2.08530000
H        0.89810000      -3.04770000      -1.08050000
