20
Properties=species:S:1:pos:R:3 gdb_59206=T pbc="F F F"
C        0.06960000       1.37660000      -0.15310000
N        0.04900000      -0.05480000       0.10310000
C        0.74390000      -0.38970000       1.33660000
C       -1.29320000      -0.57650000       0.09380000
C       -2.00310000      -0.76230000      -1.27530000
O       -1.10900000      -1.89010000      -1.59190000
C       -1.49060000      -2.09570000      -0.18040000
C       -2.94850000      -1.82030000      -0.61160000
O       -3.87090000      -1.48200000       0.38350000
H        1.10580000       1.72660000      -0.19410000
H       -0.39630000       1.59170000      -1.11920000
H       -0.45800000       1.96760000       0.62140000
H        0.27630000       0.05540000       2.23690000
H        0.76870000      -1.47500000       1.47040000
H        1.77720000      -0.03300000       1.28340000
H       -1.93710000      -0.16960000       0.89060000
H       -2.20130000      -0.03800000      -2.06640000
H       -1.07500000      -2.96070000       0.33680000
H       -3.32080000      -2.55480000      -1.33250000
H       -4.71260000      -1.28270000      -0.03760000
