19
Properties=species:S:1:pos:R:3 gdb_34739=T pbc="F F F"
C       -0.19670000      -1.27230000      -0.21160000
C       -0.09840000      -0.08050000      -0.07470000
C        0.01400000       1.36090000       0.07640000
C       -0.22910000       2.02940000       1.43860000
C        0.99250000       1.94920000       2.33910000
C        2.05390000       0.87880000       2.08550000
C        2.52580000       1.15960000       0.63130000
C        1.43200000       2.06300000       0.05080000
C        0.95430000       2.95860000       1.22780000
H       -0.28670000      -2.32390000      -0.32740000
H       -0.62380000       1.84800000      -0.66900000
H       -1.20930000       2.25250000       1.84410000
H        0.81980000       2.29400000       3.35310000
H        2.87650000       0.97340000       2.80110000
H        1.64600000      -0.13040000       2.18910000
H        3.48060000       1.69700000       0.63140000
H        2.65590000       0.24390000       0.04780000
H        1.68450000       2.53750000      -0.89710000
H        1.03080000       4.03310000       1.32220000
