19
Properties=species:S:1:pos:R:3 gdb_106133=T pbc="F F F"
O        0.17080000       1.37090000      -0.12000000
C        0.03830000      -0.03100000       0.07580000
C       -1.38570000      -0.48380000       0.07630000
C       -2.01650000      -1.84620000      -0.09800000
C       -2.86130000      -1.65250000       1.15340000
C       -2.52770000      -0.10660000       1.08860000
C       -3.60150000       0.54140000       0.24720000
C       -3.47290000       0.12700000      -1.01890000
C       -2.25210000      -0.71880000      -1.14090000
H       -0.36480000       1.60250000      -0.88620000
H        0.59630000      -0.60300000      -0.68520000
H        0.51320000      -0.23600000       1.04270000
H       -1.55380000      -2.77210000      -0.42050000
H       -3.91910000      -1.93410000       1.13210000
H       -2.37220000      -2.11710000       2.01340000
H       -2.26600000       0.37890000       2.02750000
H       -4.42530000       1.11120000       0.65940000
H       -4.15460000       0.32160000      -1.83760000
H       -1.77700000      -0.89340000      -2.10080000
