18
Properties=species:S:1:pos:R:3 gdb_33997=T pbc="F F F"
C        0.06520000      -1.23200000      -0.40820000
C        0.05260000      -0.04950000      -0.19080000
C       -0.01720000       1.36490000       0.09000000
C        0.25370000       2.34380000      -1.01510000
N        1.26900000       2.08840000      -0.00500000
C        1.54450000       3.15560000       0.96280000
C        0.35460000       3.73280000       1.68140000
C       -0.81190000       3.09910000       1.76300000
C       -1.04340000       1.74200000       1.16160000
H        0.09520000      -2.27430000      -0.60810000
H        0.48450000       1.98060000      -2.01220000
H       -0.29810000       3.28140000      -0.97370000
H        2.25650000       2.75130000       1.69640000
H        2.08490000       3.94620000       0.42650000
H        0.49090000       4.70160000       2.15530000
H       -1.64330000       3.54360000       2.30340000
H       -2.05100000       1.67370000       0.73270000
H       -1.01090000       0.98160000       1.95360000
