24
Properties=species:S:1:pos:R:3 gdb_105219=T pbc="F F F"
C       -1.60050000      -2.23910000       0.03990000
C       -0.32580000      -1.38080000      -0.03520000
C       -0.60900000      -0.03770000      -0.73080000
C        0.31240000      -1.22200000       1.34570000
C       -0.49920000      -0.45830000       2.40020000
O        0.23680000      -0.26030000       3.58460000
C        1.23310000      -2.29190000       1.83310000
N        1.75280000      -0.96320000       1.51110000
C        2.66340000      -0.82130000       0.38640000
H       -2.39320000      -1.73500000       0.60230000
H       -1.98800000      -2.43700000      -0.96470000
H       -1.40520000      -3.20120000       0.52340000
H        0.38900000      -1.92930000      -0.65940000
H       -1.39400000       0.52670000      -0.21820000
H        0.28290000       0.59430000      -0.77360000
H       -0.94810000      -0.20830000      -1.75780000
H       -0.82840000       0.50430000       1.97570000
H       -1.40040000      -1.02500000       2.66120000
H        1.14510000      -0.10620000       3.27570000
H        1.25530000      -2.56390000       2.88440000
H        1.46450000      -3.09940000       1.13870000
H        2.45930000      -1.49800000      -0.45630000
H        2.63550000       0.20850000       0.01680000
H        3.68030000      -1.02510000       0.73730000
