20
Properties=species:S:1:pos:R:3 gdb_73710=T pbc="F F F"
O       -0.00850000       1.42180000       0.12620000
C        0.03720000       0.02000000      -0.01030000
C        1.08860000      -0.60100000       0.90510000
C        1.41010000      -2.02880000       0.45650000
C        0.10930000      -2.71110000       0.02270000
N       -0.77430000      -1.84970000      -0.78060000
C       -1.36410000      -0.64870000      -0.06390000
C       -1.58110000      -0.03230000      -1.46840000
C       -0.15280000      -0.62460000      -1.44600000
H        0.89530000       1.75400000       0.13390000
H        1.99750000       0.01640000       0.88820000
H        0.71860000      -0.57590000       1.93780000
H        2.09220000      -1.98910000      -0.40120000
H        1.92310000      -2.59800000       1.23880000
H        0.32680000      -3.61120000      -0.56380000
H       -0.46900000      -3.03870000       0.89660000
H       -2.08210000      -0.76990000       0.75110000
H       -2.28850000      -0.57220000      -2.09770000
H       -1.66700000       1.04980000      -1.52520000
H        0.55690000      -0.71370000      -2.27170000
