23
Properties=species:S:1:pos:R:3 gdb_118769=T pbc="F F F"
C       -0.06300000       1.50280000      -0.06430000
C       -0.02910000      -0.01340000       0.01790000
C       -1.22310000      -0.67220000      -0.65070000
C        1.32790000      -0.69440000      -0.08940000
C        0.60750000      -0.64190000       1.24200000
O        1.08910000       0.28310000       2.19450000
C        0.06620000      -1.90710000       1.88360000
C        1.13740000      -2.69820000       2.64200000
O        0.63760000      -3.90490000       3.19580000
H        0.77230000       1.95300000       0.47230000
H       -0.02720000       1.82730000      -1.11060000
H       -0.98870000       1.89510000       0.37280000
H       -1.31100000      -0.32280000      -1.68590000
H       -1.14580000      -1.76140000      -0.68250000
H       -2.15730000      -0.41530000      -0.13740000
H        1.38950000      -1.64690000      -0.60750000
H        2.20070000      -0.05950000      -0.20820000
H        1.98860000       0.03160000       2.42610000
H       -0.73500000      -1.62900000       2.58280000
H       -0.37390000      -2.57010000       1.13430000
H        1.93650000      -2.99740000       1.95450000
H        1.59250000      -2.06560000       3.42010000
H       -0.04130000      -3.67260000       3.83750000
