15
Properties=species:S:1:pos:R:3 gdb_28358=T pbc="F F F"
C       -0.03130000       1.52370000       0.00750000
C        0.00260000       0.02320000      -0.03080000
C       -0.05190000      -0.71880000      -1.17200000
N       -0.02440000      -2.08330000      -1.23930000
C        0.06850000      -2.68940000      -0.09450000
N        0.15030000      -4.03620000      -0.00940000
O        0.12330000      -2.09860000       1.10610000
C        0.09390000      -0.67410000       1.22820000
O        0.14520000      -0.23180000       2.34130000
H        0.86930000       1.92850000       0.48170000
H       -0.10590000       1.93540000      -1.00250000
H       -0.88210000       1.88620000       0.59430000
H       -0.12620000      -0.21740000      -2.13460000
H       -0.04330000      -4.56070000      -0.84500000
H        0.02500000      -4.47490000       0.88640000
