17
Properties=species:S:1:pos:R:3 gdb_72589=T pbc="F F F"
C        0.18310000       1.55370000      -0.02440000
C        0.11330000       0.05920000       0.07450000
C        0.60050000      -0.88510000      -1.04410000
C        1.28880000      -1.79190000       0.02250000
C        0.80890000      -0.85280000       1.16070000
O        1.76990000      -0.52010000       2.09710000
C       -0.62720000      -1.12140000       1.60840000
O       -1.17350000      -1.66290000       2.51770000
O       -1.19500000      -0.41510000       0.57950000
H        1.20240000       1.86490000      -0.27150000
H       -0.48840000       1.92510000      -0.80560000
H       -0.10190000       2.02170000       0.92250000
H       -0.21010000      -1.33830000      -1.61670000
H        1.30640000      -0.41660000      -1.73320000
H        0.97050000      -2.83360000       0.08870000
H        2.37870000      -1.75790000      -0.03540000
H        1.33590000      -0.23400000       2.90870000
