21
Properties=species:S:1:pos:R:3 gdb_61266=T pbc="F F F"
O       -0.42140000       1.32340000       0.03630000
C       -0.06680000      -0.05120000       0.01800000
C        0.72010000      -0.42070000      -1.26040000
C        0.02380000      -0.08620000      -2.49560000
C       -0.55740000       0.18410000      -3.51200000
C        0.69390000      -0.47300000       1.27640000
C        1.98970000       0.28920000       1.68750000
C        1.52350000       0.19960000       3.16560000
C        0.08800000      -0.10070000       2.65750000
H        0.36540000       1.84230000      -0.16180000
H       -1.02680000      -0.58170000      -0.00310000
H        1.69490000       0.08830000      -1.23360000
H        0.94320000      -1.49500000      -1.23970000
H       -1.07260000       0.42590000      -4.40820000
H        0.89360000      -1.54980000       1.22370000
H        2.95260000      -0.15500000       1.42390000
H        1.97780000       1.32590000       1.33370000
H        1.96440000      -0.66250000       3.67430000
H        1.66540000       1.08210000       3.79370000
H       -0.51020000       0.81000000       2.57250000
H       -0.49270000      -0.86430000       3.18060000
