19
Properties=species:S:1:pos:R:3 gdb_41213=T pbc="F F F"
C       -0.28570000       1.23630000      -0.12770000
C        1.26480000       1.23140000       0.35480000
C        1.40070000       0.07400000       1.33520000
C        1.22490000      -1.36550000       0.79360000
C       -0.24770000      -1.07130000       0.64320000
C       -0.92420000      -1.06170000       1.99500000
O        0.00230000      -0.66880000       3.06130000
C        0.85040000       0.26480000       2.55620000
C       -0.48750000      -0.23600000      -0.41910000
H       -0.89310000       1.61540000       0.69850000
H       -0.42120000       1.89620000      -0.99070000
H        1.90990000       1.12970000      -0.52320000
H        1.50050000       2.18190000       0.84260000
H        1.75060000      -1.50380000      -0.15150000
H        1.51400000      -2.12850000       1.52230000
H       -1.78580000      -0.38310000       2.02120000
H       -1.26850000      -2.06690000       2.26390000
H        0.89260000       1.19380000       3.12210000
H        0.09550000      -0.51260000      -1.30470000
