19
Properties=species:S:1:pos:R:3 gdb_113276=T pbc="F F F"
C        0.06250000       1.40320000      -0.31720000
C        0.00470000      -0.04230000       0.19550000
C       -1.40560000      -0.58930000       0.13930000
C       -1.97230000      -1.21830000      -1.07850000
C       -1.72110000      -2.11790000       0.14120000
C       -0.58460000      -3.08600000       0.03910000
O        0.33070000      -2.99280000      -0.74350000
C       -2.83540000      -2.56070000       0.92960000
C       -3.75410000      -2.95690000       1.59790000
H        1.08260000       1.79420000      -0.25930000
H       -0.26300000       1.46510000      -1.36070000
H       -0.58250000       2.06390000       0.27240000
H        0.67160000      -0.67490000      -0.39450000
H        0.36510000      -0.07790000       1.23110000
H       -2.11890000      -0.04930000       0.75700000
H       -3.00930000      -1.04710000      -1.34090000
H       -1.29550000      -1.40850000      -1.90540000
H       -0.64640000      -3.92850000       0.75870000
H       -4.57020000      -3.30090000       2.18370000
