14
Properties=species:S:1:pos:R:3 gdb_2079=T pbc="F F F"
O        0.01410000       0.04360000       0.48740000
C       -0.01960000       1.14530000       0.01160000
C       -1.32840000       1.92430000      -0.14830000
N       -1.30630000       3.12540000      -0.97740000
C       -0.07200000       3.86850000      -0.74560000
C        1.15610000       3.01680000      -1.03060000
O        1.13930000       1.75640000      -0.33350000
H       -2.08110000       1.22210000      -0.51290000
H       -1.63300000       2.19730000       0.87200000
H       -1.36160000       2.86350000      -1.95740000
H       -0.05090000       4.76330000      -1.37640000
H       -0.06450000       4.20410000       0.29930000
H        1.22770000       2.80480000      -2.10610000
H        2.08210000       3.51220000      -0.72210000
