23
Properties=species:S:1:pos:R:3 gdb_58476=T pbc="F F F"
C       -0.42940000       1.44270000       0.10660000
C        0.07100000       0.00990000      -0.11630000
O        0.93680000      -0.05790000      -1.24270000
C        0.78770000      -0.54920000       1.10430000
O        1.99520000       0.15150000       1.34080000
C        0.03760000      -1.08860000       2.29680000
C        0.84230000      -2.02920000       1.40700000
C        0.09450000      -3.01130000       0.52210000
C        2.13550000      -2.59410000       1.96840000
H        0.40290000       2.11570000       0.34240000
H       -0.90390000       1.81410000      -0.80500000
H       -1.15610000       1.48950000       0.92470000
H       -0.78730000      -0.62310000      -0.35850000
H        1.79770000       0.24220000      -0.92360000
H        1.77920000       0.96780000       1.80440000
H        0.43770000      -0.85860000       3.27960000
H       -1.04680000      -1.13060000       2.24960000
H       -0.90060000      -2.65700000       0.24280000
H        0.65040000      -3.20930000      -0.40070000
H       -0.03670000      -3.96380000       1.04800000
H        1.92640000      -3.46490000       2.60020000
H        2.79790000      -2.92260000       1.15920000
H        2.67700000      -1.85520000       2.55990000
