14
Properties=species:S:1:pos:R:3 gdb_131760=T pbc="F F F"
O        0.02950000       1.39900000       0.00700000
C       -0.02860000      -0.00410000       0.00220000
C       -1.45400000      -0.48590000       0.01270000
N       -2.39320000       0.39540000       0.02340000
O       -3.70720000      -0.07680000       0.03300000
C       -3.96190000      -1.38900000       0.03110000
C       -3.02460000      -2.35660000       0.02000000
C       -1.63540000      -1.96690000       0.00900000
O       -0.67010000      -2.71740000      -0.00100000
H        0.95680000       1.65260000      -0.00270000
H        0.45400000      -0.45220000      -0.88150000
H        0.46920000      -0.45890000       0.87400000
H       -5.03290000      -1.56340000       0.03980000
H       -3.30120000      -3.40280000       0.01920000
