14
Properties=species:S:1:pos:R:3 gdb_127184=T pbc="F F F"
C       -0.01020000       1.43870000      -0.06400000
N       -0.00620000      -0.02340000      -0.02040000
C       -0.01370000      -0.68340000       1.19840000
O       -0.02440000      -0.12170000       2.26740000
C        0.00490000      -0.72000000      -1.21160000
N        0.00970000      -2.04750000      -1.32310000
N        0.02020000      -2.17260000      -2.64880000
N        0.02190000      -1.04080000      -3.31920000
N        0.01210000      -0.09020000      -2.41610000
H        0.87930000       1.80710000      -0.58020000
H       -0.89420000       1.80190000      -0.59320000
H       -0.01880000       1.78380000       0.96820000
H       -0.01040000      -1.77690000       1.07750000
H        0.02640000      -3.07210000      -3.10640000
