15
Properties=species:S:1:pos:R:3 gdb_129498=T pbc="F F F"
N       -0.11300000       1.30530000      -0.02820000
C        0.06930000      -0.03070000      -0.01570000
O        1.14900000      -0.59940000       0.01390000
N       -1.14380000      -0.74910000      -0.04440000
N       -2.35640000      -0.08880000       0.00560000
C       -3.24570000      -1.06190000       0.04280000
C       -2.66370000      -2.34910000       0.01720000
C       -1.30090000      -2.11990000      -0.04220000
N       -0.23830000      -2.97280000      -0.15550000
H        0.69690000       1.89380000       0.04300000
H       -1.05070000       1.67320000      -0.00050000
H       -4.29760000      -0.81540000       0.08530000
H       -3.15790000      -3.30640000       0.02510000
H       -0.38410000      -3.90300000       0.20130000
H        0.66060000      -2.54740000       0.03500000
