10
Properties=species:S:1:pos:R:3 gdb_21880=T pbc="F F F"
O       -0.05370000       1.27210000       0.15590000
C        0.02660000      -0.04200000       0.03340000
N        1.15890000      -0.64690000      -0.05700000
C        1.09090000      -2.01560000      -0.17980000
N        0.04760000      -2.76880000      -0.21610000
O       -1.18080000      -2.09910000      -0.11670000
C       -1.28900000      -0.74210000       0.01050000
O       -2.36130000      -0.21890000       0.09170000
H        0.85310000       1.61830000       0.15930000
H        2.03300000      -2.54780000      -0.25770000
