14
Properties=species:S:1:pos:R:3 gdb_7417=T pbc="F F F"
N        0.00240000       1.38190000      -0.22950000
C       -0.06490000      -0.02000000      -0.24870000
N        1.02500000      -0.63650000       0.37970000
H        1.89900000      -0.17450000       0.15590000
H        1.06250000      -1.61760000       0.12810000
C       -1.06360000      -0.72560000      -0.80620000
O       -0.94200000      -2.10180000      -0.96630000
C       -1.51280000      -1.01030000       2.33550000
O       -1.42210000       0.08820000       2.70240000
O       -1.62640000      -2.12510000       2.01490000
H        0.14820000       1.73360000       0.71190000
H       -0.82580000       1.80910000      -0.62480000
H       -1.95350000      -0.25190000      -1.21160000
H       -1.41580000      -2.53130000      -0.24330000
