20
Properties=species:S:1:pos:R:3 gdb_104129=T pbc="F F F"
C        0.19620000       1.34440000      -0.27090000
C       -0.14970000      -0.14580000      -0.17960000
C       -1.61450000      -0.45380000       0.18380000
O       -2.00240000       0.17350000       1.39580000
C       -2.59190000      -0.13210000      -0.97650000
O       -2.62130000      -1.30250000      -1.80290000
C       -2.23080000      -2.40020000      -1.07780000
N       -2.19360000      -3.57690000      -1.52970000
C       -1.85100000      -1.96540000       0.31720000
H        1.24090000       1.47580000      -0.56610000
H       -0.41770000       1.87220000      -1.00850000
H        0.07750000       1.84860000       0.69510000
H        0.07730000      -0.63650000      -1.13370000
H        0.48880000      -0.61700000       0.57610000
H       -1.80490000       1.11340000       1.33060000
H       -3.58930000       0.06350000      -0.56490000
H       -2.29130000       0.71010000      -1.60470000
H       -2.51780000      -3.59710000      -2.49860000
H       -0.99610000      -2.52800000       0.69300000
H       -2.69300000      -2.13000000       0.99820000
