21
Properties=species:S:1:pos:R:3 gdb_61653=T pbc="F F F"
C       -0.13230000       1.55370000       0.17870000
C        0.04930000       0.03740000      -0.03830000
C        0.83550000      -0.30300000      -1.32940000
C        0.10920000       0.10080000      -2.60140000
C        0.57280000      -0.54140000      -3.92910000
C       -0.87010000      -1.07880000      -4.00690000
O       -1.19390000      -0.52850000      -2.71270000
C        0.70040000      -0.57280000       1.11960000
C        1.25770000      -1.06230000       2.06610000
H        0.83850000       2.05610000       0.23850000
H       -0.70650000       2.00060000      -0.63730000
H       -0.66780000       1.74400000       1.11210000
H       -0.94510000      -0.41390000      -0.14970000
H        1.81800000       0.18600000      -1.30440000
H        1.01310000      -1.38370000      -1.35300000
H        0.00840000       1.19300000      -2.66240000
H        0.87310000       0.14900000      -4.71830000
H        1.34120000      -1.30810000      -3.80920000
H       -1.48770000      -0.64030000      -4.80100000
H       -0.98740000      -2.16840000      -4.03030000
H        1.73610000      -1.50120000       2.90610000
