23
Properties=species:S:1:pos:R:3 gdb_119885=T pbc="F F F"
C       -0.11720000       1.60850000       0.05560000
C       -0.08940000       0.07790000       0.04220000
C        0.80260000      -0.50980000       1.15320000
C        0.83280000      -2.01770000       1.18490000
C        1.88890000      -2.72680000       0.78220000
C        1.94190000      -4.22940000       0.83640000
O        0.88390000      -4.80640000       1.57660000
C       -0.36650000      -4.21250000       1.27740000
C       -0.39250000      -2.74250000       1.69910000
H        0.88820000       2.02410000      -0.07570000
H       -0.74800000       2.00310000      -0.74700000
H       -0.50900000       1.98940000       1.00540000
H       -1.11220000      -0.30460000       0.14510000
H        0.27450000      -0.28040000      -0.92850000
H        1.82270000      -0.12740000       1.02690000
H        0.44730000      -0.13200000       2.12350000
H        2.77540000      -2.22970000       0.39320000
H        1.96270000      -4.64070000      -0.19120000
H        2.86720000      -4.56130000       1.32330000
H       -0.58060000      -4.29280000       0.19820000
H       -1.11940000      -4.79670000       1.81430000
H       -0.43610000      -2.66640000       2.79470000
H       -1.30920000      -2.27090000       1.32300000
