15
Properties=species:S:1:pos:R:3 gdb_72060=T pbc="F F F"
O       -0.15710000       1.29210000      -0.13530000
C        0.03940000      -0.06100000      -0.07650000
C        0.96900000      -0.92130000      -0.93310000
C        0.13060000      -2.11240000      -0.40880000
N        0.49140000      -2.13730000       1.05350000
C       -0.29420000      -0.89560000       1.15740000
C       -1.07900000      -1.10870000      -0.13680000
C       -2.44190000      -1.04450000      -0.48870000
N       -3.56400000      -1.01620000      -0.77880000
H        0.42030000       1.72290000       0.50540000
H        0.80080000      -0.73510000      -1.99570000
H        2.03580000      -0.94410000      -0.69510000
H        0.07300000      -3.05980000      -0.93660000
H       -0.05400000      -2.87860000       1.49320000
H       -0.62990000      -0.45340000       2.08670000
