22
Properties=species:S:1:pos:R:3 gdb_57191=T pbc="F F F"
C        0.10910000       1.59360000       0.51670000
C        0.00580000       0.09380000       0.17920000
C        0.92570000      -0.70870000       1.11460000
C       -1.45500000      -0.35500000       0.35790000
C        0.47430000      -0.07130000      -1.30650000
O        1.76470000       0.45960000      -1.48630000
C        0.52150000      -1.53170000      -1.79490000
N       -0.64880000      -2.11830000      -2.14300000
O        1.59570000      -2.10950000      -1.87010000
H        1.12580000       1.95650000       0.35590000
H       -0.56660000       2.18730000      -0.11000000
H       -0.16510000       1.76830000       1.56250000
H        0.65330000      -0.53270000       2.16030000
H        0.85920000      -1.78520000       0.92720000
H        1.96730000      -0.40660000       0.97890000
H       -2.12110000       0.15360000      -0.35150000
H       -1.57650000      -1.43480000       0.23530000
H       -1.80470000      -0.09910000       1.36330000
H       -0.22950000       0.49010000      -1.94150000
H        2.33200000      -0.31920000      -1.61950000
H       -1.51980000      -1.61810000      -2.13890000
H       -0.62880000      -3.06420000      -2.48860000
