13
Properties=species:S:1:pos:R:3 gdb_9981=T pbc="F F F"
N        0.02550000       1.24450000       0.05860000
C       -0.07400000      -0.01030000       0.19590000
N       -1.28860000      -0.68660000       0.02950000
C       -1.32200000      -2.14390000       0.08140000
C       -0.87710000      -2.67750000       1.37320000
N       -0.50010000      -3.09550000       2.38160000
C       -2.48640000      -0.01340000      -0.20200000
O       -3.53970000      -0.57890000      -0.37320000
H        0.97930000       1.55100000       0.23450000
H        0.74020000      -0.69450000       0.45660000
H       -2.36130000      -2.43090000      -0.10190000
H       -0.70520000      -2.57900000      -0.71310000
H       -2.34580000       1.07440000      -0.20860000
