15
Properties=species:S:1:pos:R:3 gdb_94535=T pbc="F F F"
O        0.59130000       1.34190000       0.27180000
C        0.22150000       0.00780000       0.16260000
C       -0.33860000      -0.76500000       1.38300000
O       -1.40840000      -1.31930000       0.57000000
C       -1.12180000      -0.39620000      -0.51490000
C       -2.22200000       0.65040000      -0.46470000
O       -2.18060000       1.65730000       0.21280000
C       -3.50400000       0.36880000      -1.25880000
O       -3.60290000      -0.53250000      -2.04690000
H       -0.19440000       1.83450000       0.54850000
H        1.05860000      -0.52040000      -0.29970000
H        0.27850000      -1.55370000       1.82330000
H       -0.72270000      -0.10790000       2.17350000
H       -1.09860000      -0.90070000      -1.48370000
H       -4.31210000       1.10030000      -1.04990000
