19
Properties=species:S:1:pos:R:3 gdb_113160=T pbc="F F F"
C        0.59830000       1.20820000      -0.40690000
C        0.18360000      -0.18170000       0.03010000
N        1.24680000      -1.11320000       0.45860000
C        0.29000000      -0.64140000       1.45700000
C        0.89180000       0.19800000       2.57850000
O        2.16190000       0.71540000       2.24710000
C       -0.92490000      -0.88790000      -0.72960000
N       -1.70770000      -0.11300000      -1.52430000
O       -1.09570000      -2.09280000      -0.62090000
H        1.42620000       1.56000000       0.20820000
H        0.90930000       1.21670000      -1.45720000
H       -0.22430000       1.92310000      -0.28270000
H        0.97950000      -2.04760000       0.14890000
H       -0.47800000      -1.34490000       1.76980000
H        0.23530000       1.04130000       2.82550000
H        0.94990000      -0.43920000       3.47690000
H        2.54860000       0.06010000       1.64520000
H       -1.55590000       0.87170000      -1.64350000
H       -2.44360000      -0.56190000      -2.04380000
