21
Properties=species:S:1:pos:R:3 gdb_38260=T pbc="F F F"
C       -0.04200000       1.61110000       0.18630000
C        1.45900000       1.24230000       0.04540000
C        1.16830000       0.04900000       1.02250000
C       -0.00260000       0.05940000      -0.00030000
C       -1.16770000      -0.82480000      -0.34810000
O       -1.66030000      -0.42160000      -1.62820000
C       -0.68590000      -0.44510000      -2.66480000
C        0.44660000       0.58530000      -2.46130000
C        1.07060000       0.26230000      -1.10810000
H       -0.36150000       1.96430000       1.17100000
H       -0.49940000       2.20550000      -0.60390000
H        2.31190000       1.92190000       0.08960000
H        1.85360000      -0.80240000       0.97560000
H        0.93040000       0.31780000       2.05540000
H       -0.85650000      -1.88350000      -0.37340000
H       -2.01240000      -0.73100000       0.34150000
H       -0.24910000      -1.45610000      -2.74590000
H       -1.23750000      -0.24510000      -3.58810000
H        1.17090000       0.49870000      -3.27930000
H        0.02730000       1.59420000      -2.50740000
H        1.75820000      -0.58750000      -1.20570000
