18
Properties=species:S:1:pos:R:3 gdb_89339=T pbc="F F F"
C       -0.19760000       1.45740000       0.08970000
N        0.08130000       0.03480000       0.00700000
C        1.15450000      -0.43240000      -0.91630000
C        1.84190000      -1.15570000       0.23260000
O        2.36550000      -2.41310000       0.05270000
C        2.19030000      -0.19870000       1.32260000
C        0.71820000      -0.61570000       1.15500000
C       -0.03090000      -1.20240000       2.21020000
C       -0.65990000      -1.70330000       3.10660000
H        0.68490000       2.08430000       0.31000000
H       -0.62510000       1.79770000      -0.85880000
H       -0.94060000       1.62900000       0.87440000
H        0.76450000      -1.10740000      -1.68430000
H        1.74510000       0.36120000      -1.39310000
H        3.04710000      -2.56870000       0.71290000
H        2.65800000      -0.64630000       2.19580000
H        2.51400000       0.81870000       1.11190000
H       -1.22140000      -2.15040000       3.88870000
