18
Properties=species:S:1:pos:R:3 gdb_44085=T pbc="F F F"
O        0.19840000       0.15080000      -0.66420000
C        0.08720000       1.23670000      -0.17520000
C       -1.11260000       2.06020000       0.34700000
C       -0.10290000       3.11120000       0.83540000
C       -0.23690000       4.61440000       1.06910000
C        0.64960000       4.39240000       2.32690000
N        0.51850000       2.90100000       2.20070000
C        1.71100000       2.24020000       1.58280000
C        1.09390000       2.35570000       0.15700000
H       -1.72450000       2.41260000      -0.49320000
H       -1.76050000       1.59470000       1.09370000
H        0.14680000       5.27720000       0.29040000
H       -1.26020000       4.91350000       1.31090000
H        1.68090000       4.74740000       2.21150000
H        0.25410000       4.77420000       3.27170000
H        2.63550000       2.81510000       1.70490000
H        1.88390000       1.22360000       1.94780000
H        1.71410000       2.71930000      -0.66380000
