19
Properties=species:S:1:pos:R:3 gdb_56297=T pbc="F F F"
N       -0.03100000       1.34690000      -0.16290000
C        0.07390000       0.02050000       0.14320000
O        1.13020000      -0.49410000       0.45460000
C       -1.24050000      -0.75850000       0.07000000
C       -1.01130000      -2.26710000      -0.02940000
C       -2.31360000      -3.06780000       0.03600000
C       -2.05600000      -4.58510000      -0.05990000
C       -3.28710000      -5.37000000      -0.00100000
N       -4.27230000      -5.97220000       0.04660000
H        0.78230000       1.92820000      -0.04270000
H       -0.91480000       1.78700000      -0.34920000
H       -1.81400000      -0.52430000       0.97790000
H       -1.84320000      -0.39560000      -0.77190000
H       -0.48250000      -2.49130000      -0.96390000
H       -0.33400000      -2.56800000       0.77620000
H       -2.84230000      -2.85530000       0.97240000
H       -2.98810000      -2.77000000      -0.77520000
H       -1.53660000      -4.82300000      -0.99560000
H       -1.39660000      -4.90880000       0.75390000
