17
Properties=species:S:1:pos:R:3 gdb_41329=T pbc="F F F"
C        0.02840000       1.54180000       0.24190000
O        1.46230000       1.46760000      -0.11200000
C        1.15460000       0.28590000      -0.88150000
C        0.56280000       0.63330000      -2.29610000
O       -0.64250000      -0.13670000      -2.35940000
C       -0.65570000      -0.92000000      -1.14320000
C        0.59030000      -1.85280000      -1.20910000
C        1.70640000      -1.11330000      -1.03520000
C       -0.10260000       0.02420000      -0.06890000
H       -0.09940000       1.83260000       1.28650000
H       -0.51140000       2.23200000      -0.41250000
H        0.32530000       1.69760000      -2.38710000
H        1.24390000       0.34880000      -3.10550000
H       -1.62930000      -1.39930000      -1.05970000
H        0.54670000      -2.88860000      -1.52160000
H        2.73430000      -1.42870000      -1.15850000
H        0.14380000      -0.52830000       0.83640000
