17
Properties=species:S:1:pos:R:3 gdb_98649=T pbc="F F F"
O        0.13570000       1.32660000      -0.07050000
C        0.04710000      -0.06370000      -0.02030000
C       -1.40390000      -0.52600000      -0.05090000
N       -2.30050000       0.38590000      -0.08180000
N       -1.60590000      -1.87630000      -0.07660000
C       -0.70600000      -2.97410000       0.31910000
C       -1.98050000      -3.81930000       0.53040000
O       -2.19720000      -4.94900000       0.83330000
C       -2.85770000      -2.59560000       0.18860000
H       -0.79060000       1.62890000      -0.09490000
H        0.58070000      -0.52630000      -0.86690000
H        0.52240000      -0.45420000       0.89650000
H       -3.25260000       0.02640000      -0.10920000
H       -0.02930000      -3.33250000      -0.46500000
H       -0.13200000      -2.80410000       1.23970000
H       -3.43640000      -2.20990000       1.04000000
H       -3.52310000      -2.71710000      -0.67410000
