17
Properties=species:S:1:pos:R:3 gdb_82274=T pbc="F F F"
C       -0.08890000       1.58310000      -0.06270000
C        0.01050000       0.04990000      -0.01010000
C        0.79090000      -0.54330000      -1.18380000
O        2.14650000      -0.09870000      -1.25940000
C        1.88260000      -1.38710000      -0.65800000
C        1.78660000      -1.31020000       0.82600000
C        0.78130000      -0.49320000       1.18930000
C        0.45280000      -0.19570000       2.58640000
O       -0.46240000       0.51330000       2.94560000
H        0.91010000       2.02080000      -0.13590000
H       -0.66630000       1.89830000      -0.93740000
H       -0.57990000       1.96060000       0.83540000
H       -1.00440000      -0.36920000      -0.00030000
H        0.30870000      -0.72600000      -2.14060000
H        2.31230000      -2.23880000      -1.17490000
H        2.44890000      -1.83110000       1.50850000
H        1.11270000      -0.69950000       3.32780000
