10
Properties=species:S:1:pos:R:3 gdb_35=T pbc="F F F"
C        0.16880000       1.52510000      -0.15750000
C       -0.18740000       0.06190000       0.14680000
C        0.50920000      -0.44000000       1.39130000
O        1.18190000      -1.43570000       1.45820000
H        1.23130000       1.63140000      -0.39630000
H       -0.40740000       1.89430000      -1.00970000
H       -0.04930000       2.17270000       0.69860000
H       -1.26910000      -0.01670000       0.32850000
H        0.06280000      -0.60250000      -0.68470000
H        0.35380000       0.20660000       2.28870000
