21
Properties=species:S:1:pos:R:3 gdb_87846=T pbc="F F F"
C       -0.07240000       1.50110000       0.09120000
C        0.00670000      -0.00850000       0.04160000
C        1.35110000      -0.70080000      -0.18100000
C        0.66390000      -0.77880000       1.14470000
O        1.22510000      -0.07230000       2.25880000
C        0.93270000      -0.98180000       3.33700000
C        1.33650000      -2.36150000       2.75790000
C        0.13030000      -2.03020000       1.81800000
C       -0.54030000      -1.38630000       3.07630000
H        0.76900000       1.91530000       0.65250000
H       -0.06170000       1.93140000      -0.91610000
H       -0.99170000       1.83210000       0.58700000
H       -0.84880000      -0.49690000      -0.42150000
H        1.39240000      -1.58500000      -0.80970000
H        2.22780000      -0.06310000      -0.23570000
H        1.30520000      -0.56960000       4.27320000
H        2.33030000      -2.44420000       2.31310000
H        1.13220000      -3.19310000       3.43440000
H       -0.36160000      -2.77140000       1.18980000
H       -0.91840000      -2.12710000       3.78290000
H       -1.26030000      -0.57950000       2.92300000
