23
Properties=species:S:1:pos:R:3 gdb_64372=T pbc="F F F"
C        0.35330000       1.62580000      -0.14720000
C        0.01320000       0.14230000       0.05240000
O       -1.39230000      -0.00500000       0.23060000
C        0.57290000      -0.73510000      -1.09010000
C        2.06090000      -0.95610000      -0.73730000
C        2.16310000      -0.75310000       0.80690000
C        0.74050000      -0.44320000       1.26740000
C        0.41270000      -0.02080000       2.66950000
C        0.01470000      -1.39590000       2.18490000
H        1.42880000       1.78350000      -0.27220000
H       -0.13960000       2.01500000      -1.04730000
H        0.01890000       2.21360000       0.71200000
H       -1.83290000       0.49820000      -0.46110000
H        0.02380000      -1.68170000      -1.07020000
H        0.43000000      -0.28790000      -2.07960000
H        2.40140000      -1.94840000      -1.04360000
H        2.69630000      -0.23520000      -1.26030000
H        2.56390000      -1.63490000       1.31470000
H        2.84140000       0.07540000       1.04020000
H        1.22410000       0.06550000       3.38530000
H       -0.38510000       0.70270000       2.80380000
H       -1.03720000      -1.57540000       2.00260000
H        0.57050000      -2.25010000       2.55880000
