21
Properties=species:S:1:pos:R:3 gdb_73958=T pbc="F F F"
C       -0.00750000       1.55360000       0.15220000
C       -0.02950000       0.05720000      -0.02940000
C       -0.08540000      -0.59550000      -1.21310000
C       -0.06360000      -2.10760000      -1.32180000
C        0.40230000      -2.79870000      -0.03870000
C       -0.30190000      -2.18740000       1.17400000
C        0.03290000      -0.69690000       1.28200000
C       -0.19220000       0.10850000      -2.50400000
O       -0.24260000      -0.46240000      -3.57460000
H        0.83280000       1.83240000       0.80060000
H        0.08080000       2.12540000      -0.76990000
H       -0.91610000       1.88380000       0.67160000
H       -1.06990000      -2.45640000      -1.59320000
H        0.56660000      -2.38270000      -2.17310000
H        0.21120000      -3.87500000      -0.10090000
H        1.48780000      -2.67690000       0.07370000
H       -1.38690000      -2.31130000       1.06320000
H       -0.01900000      -2.70010000       2.09930000
H        1.04570000      -0.56760000       1.69510000
H       -0.63090000      -0.20230000       2.00380000
H       -0.23850000       1.21440000      -2.46820000
