18
Properties=species:S:1:pos:R:3 gdb_66959=T pbc="F F F"
C       -0.10410000       1.47340000      -0.08460000
C        0.06750000      -0.00840000       0.02980000
C        0.83800000      -0.83650000      -0.94900000
C        1.09090000      -2.21330000      -0.36290000
C       -0.30260000      -2.02200000       0.25770000
C       -0.17580000      -0.86030000       1.27980000
C        0.79830000      -0.91700000       2.35360000
C        1.61710000      -0.96760000       3.23330000
N       -0.66300000      -0.98580000      -0.85110000
H        0.69920000       1.99760000       0.44460000
H       -0.08250000       1.78460000      -1.13330000
H       -1.06060000       1.79210000       0.34270000
H        1.29670000      -0.38810000      -1.82370000
H        1.07080000      -2.97780000      -1.14360000
H        1.94190000      -2.37300000       0.30500000
H       -0.97070000      -2.85750000       0.45450000
H       -1.17070000      -0.62090000       1.67220000
H        2.33660000      -1.00960000       4.01330000
