23
Properties=species:S:1:pos:R:3 gdb_91937=T pbc="F F F"
C       -0.99980000       1.12210000       0.16080000
C       -0.25620000      -0.22070000       0.10200000
C        0.42870000      -0.49220000      -1.27080000
C        1.92080000      -0.28220000      -1.05860000
C        2.36910000       1.00160000      -0.40560000
C        2.18580000      -0.24240000       0.42570000
C        0.87500000      -0.45880000       1.16680000
C        0.75040000       0.36190000       2.45190000
O        0.90620000      -1.85830000       1.49910000
H       -0.35060000       1.98390000      -0.01710000
H       -1.78070000       1.14410000      -0.60680000
H       -1.48930000       1.27090000       1.12800000
H       -1.00710000      -0.99830000       0.28150000
H        0.25840000      -1.52980000      -1.57570000
H        0.01590000       0.14600000      -2.06070000
H        2.60880000      -0.77820000      -1.73420000
H        3.39340000       1.31280000      -0.58220000
H        1.67790000       1.83090000      -0.31130000
H        3.05790000      -0.71160000       0.86670000
H        0.80690000       1.43620000       2.25760000
H       -0.20110000       0.16440000       2.96130000
H        1.56030000       0.09190000       3.13570000
H        0.12160000      -2.04780000       2.02460000
