21
Properties=species:S:1:pos:R:3 gdb_92536=T pbc="F F F"
C       -0.63970000       1.39140000       0.02950000
C        0.01510000       0.01200000       0.01050000
C        0.86370000      -0.29290000      -1.24870000
C        1.70480000      -1.51350000      -0.83750000
C        3.23520000      -1.38700000      -0.64600000
O        3.12370000      -1.58950000       0.78050000
C        1.69140000      -1.57360000       0.71050000
C        0.99970000      -0.26380000       1.17310000
O        1.99340000       0.74350000       1.27780000
H        0.11180000       2.18560000      -0.04500000
H       -1.32270000       1.51440000      -0.81700000
H       -1.21980000       1.55180000       0.94560000
H       -0.77430000      -0.75120000       0.08140000
H        0.24140000      -0.47540000      -2.12910000
H        1.50560000       0.56590000      -1.47270000
H        1.40310000      -2.43160000      -1.34340000
H        3.84940000      -2.16500000      -1.11370000
H        3.64940000      -0.39970000      -0.88520000
H        1.24840000      -2.44760000       1.20100000
H        0.47610000      -0.39130000       2.13170000
H        1.56110000       1.54970000       1.57510000
