18
Properties=species:S:1:pos:R:3 gdb_30798=T pbc="F F F"
C       -0.48930000       1.52620000       0.85180000
C       -0.22320000       0.17670000       0.29450000
C       -0.89800000      -0.57150000      -0.60580000
C       -0.16750000      -1.82110000      -0.77360000
O       -0.41580000      -2.78110000      -1.48480000
C        1.00630000      -1.66760000       0.15540000
C        2.00620000      -2.50270000       0.41120000
N        1.49600000      -5.24570000      -1.47630000
H        1.04160000      -6.10660000      -1.18410000
H        0.75240000      -4.56400000      -1.63260000
H        1.90480000      -5.44050000      -2.38630000
O        0.90500000      -0.42470000       0.77180000
H        0.34910000       2.19770000       0.63740000
H       -1.40200000       1.94670000       0.42790000
H       -0.59040000       1.47380000       1.94130000
H       -1.81070000      -0.29980000      -1.11140000
H        2.78320000      -2.23540000       1.11830000
H        2.04930000      -3.46620000      -0.09200000
