18
Properties=species:S:1:pos:R:3 gdb_104143=T pbc="F F F"
O        0.03970000       1.20920000      -0.31830000
C       -0.09800000      -0.20640000      -0.22970000
C       -1.55440000      -0.46900000       0.15850000
O       -1.85850000       0.23450000       1.34420000
C       -2.51560000      -0.11080000      -1.00150000
O       -2.61860000      -1.29720000      -1.80220000
C       -2.28150000      -2.40010000      -1.06150000
N       -2.32430000      -3.58720000      -1.48610000
C       -1.84240000      -1.96470000       0.31770000
H        0.97150000       1.42850000      -0.40320000
H        0.14000000      -0.69560000      -1.18520000
H        0.55770000      -0.61960000       0.54910000
H       -1.41130000       1.08790000       1.26840000
H       -3.49640000       0.15270000      -0.59010000
H       -2.15270000       0.70150000      -1.63390000
H       -2.67110000      -3.60860000      -2.44720000
H       -1.00110000      -2.56000000       0.67570000
H       -2.66640000      -2.08580000       1.02890000
