18
Properties=species:S:1:pos:R:3 gdb_97756=T pbc="F F F"
C        0.42320000       1.27360000       0.39000000
C       -0.41010000       0.23170000      -0.37870000
C        0.33750000      -0.42920000      -1.44320000
C        0.97920000      -0.96030000      -2.31410000
C        1.73360000      -1.61080000      -3.37320000
C        3.17610000      -1.06510000      -3.66340000
C        3.67390000      -2.46030000      -3.21480000
O        4.73890000      -2.99740000      -3.08210000
N        2.38190000      -2.88660000      -3.01530000
H        1.29580000       0.80690000       0.85480000
H        0.77830000       2.05960000      -0.28180000
H       -0.17990000       1.73780000       1.17570000
H       -0.78640000      -0.52620000       0.32040000
H       -1.29890000       0.71310000      -0.80620000
H        1.12020000      -1.69860000      -4.27720000
H        3.38010000      -0.81690000      -4.70590000
H        3.48960000      -0.24930000      -3.01210000
H        2.00830000      -3.71940000      -2.58380000
