18
Properties=species:S:1:pos:R:3 gdb_87417=T pbc="F F F"
C        0.08370000       1.47680000      -0.14540000
C        0.01490000      -0.00990000       0.08810000
O        1.26710000      -0.73440000       0.02880000
C        0.57880000      -0.66920000       1.26260000
C        1.06740000      -0.08420000       2.56290000
C        0.10150000      -0.93150000       3.31610000
C        0.06040000      -1.87730000       2.05190000
C        1.37520000      -2.45320000       2.60490000
N        1.55300000      -1.21100000       3.44060000
H        0.91980000       1.92200000       0.39940000
H        0.21800000       1.68980000      -1.21090000
H       -0.84460000       1.95960000       0.17910000
H       -0.80100000      -0.52160000      -0.42640000
H        1.44930000       0.90190000       2.78770000
H       -0.57140000      -0.71710000       4.13450000
H       -0.76090000      -2.48720000       1.68230000
H        1.23580000      -3.29830000       3.28250000
H        2.18040000      -2.66060000       1.89210000
