19
Properties=species:S:1:pos:R:3 gdb_30819=T pbc="F F F"
C       -0.35590000       1.55280000      -0.20820000
C        0.10130000       0.09500000      -0.01670000
C        0.91230000      -0.43790000      -1.14260000
C        2.17920000      -0.92090000      -1.27220000
N        3.14470000      -1.11890000      -0.26910000
C        2.35220000      -1.30430000      -2.65140000
C        1.16770000      -1.02070000      -3.26050000
N        0.73480000      -1.08480000      -4.57930000
O        0.28110000      -0.50640000      -2.38670000
H        0.50400000       2.22430000      -0.29450000
H       -0.94780000       1.65140000      -1.12250000
H       -0.97130000       1.88580000       0.63400000
H        0.69730000       0.01180000       0.90020000
H       -0.78410000      -0.53620000       0.14940000
H        2.95650000      -0.57450000       0.56320000
H        4.07850000      -0.89900000      -0.59380000
H        3.22960000      -1.74000000      -3.10230000
H        1.23880000      -1.77350000      -5.12090000
H       -0.26320000      -1.24170000      -4.64620000
