19
Properties=species:S:1:pos:R:3 gdb_102207=T pbc="F F F"
O        0.19500000       1.42670000       0.30690000
C        0.08240000       0.05050000       0.01510000
C       -1.36290000      -0.47810000       0.04850000
C       -2.17920000      -0.06960000      -1.20300000
C       -2.27860000       1.36750000      -1.44100000
C       -2.37050000       2.54890000      -1.65150000
C       -1.38430000      -2.02250000       0.16130000
C       -0.83290000      -2.52500000       1.41330000
C       -0.38260000      -2.92500000       2.45350000
H       -0.32910000       1.91230000      -0.34110000
H        0.53480000      -0.20030000      -0.96150000
H        0.66450000      -0.46830000       0.78250000
H       -1.84420000      -0.05560000       0.93710000
H       -1.73160000      -0.54480000      -2.08750000
H       -3.19410000      -0.47920000      -1.11980000
H       -2.46460000       3.59090000      -1.83570000
H       -2.41710000      -2.37850000       0.05540000
H       -0.82910000      -2.45510000      -0.68330000
H        0.01490000      -3.28310000       3.37070000
