16
Properties=species:S:1:pos:R:3 gdb_14409=T pbc="F F F"
C       -0.06900000       1.54390000      -0.05670000
C        0.05140000       0.05810000       0.01170000
C        0.59290000      -1.01450000      -0.87600000
C        1.33760000      -1.69770000       0.27400000
C        0.35360000      -0.94590000       1.21290000
C       -1.02100000      -1.54940000       0.86190000
O       -1.91260000      -2.01430000       1.51650000
C       -0.90980000      -1.03230000      -0.53480000
H        0.87630000       2.03250000       0.20460000
H       -0.34270000       1.86420000      -1.06710000
H       -0.83790000       1.91270000       0.63090000
H        0.89020000      -0.93110000      -1.91460000
H        1.33920000      -2.79210000       0.32630000
H        2.35940000      -1.31950000       0.36390000
H        0.60280000      -0.68750000       2.23860000
H       -1.67330000      -0.92090000      -1.29280000
