19
Properties=species:S:1:pos:R:3 gdb_117600=T pbc="F F F"
C       -0.02710000       1.54880000      -0.13850000
C        0.04530000       0.04190000       0.04470000
O        0.72900000      -0.48820000      -1.08610000
C        0.74490000      -1.91060000      -1.22460000
C        1.51780000      -2.59340000      -0.06990000
C       -0.62530000      -2.46050000      -1.30320000
C       -1.73900000      -2.90990000      -1.34050000
C        1.44150000      -2.17490000      -2.49400000
C        2.03340000      -2.42000000      -3.50880000
H        0.97670000       1.97520000      -0.22100000
H       -0.58100000       1.79830000      -1.04760000
H       -0.53120000       2.00940000       0.71650000
H        0.58150000      -0.20310000       0.97310000
H       -0.96210000      -0.39000000       0.11620000
H        0.98560000      -2.47100000       0.87570000
H        1.62070000      -3.66120000      -0.27260000
H        2.51060000      -2.14370000       0.00590000
H       -2.72280000      -3.30750000      -1.39220000
H        2.54610000      -2.62710000      -4.41570000
