16
Properties=species:S:1:pos:R:3 gdb_1744=T pbc="F F F"
C        0.02250000       1.59350000      -0.28230000
C       -0.04750000       0.08690000      -0.12950000
C       -1.39780000      -0.45770000       0.32130000
C       -1.72890000      -0.02970000       1.73660000
O       -2.75480000       0.50440000       2.07380000
C        0.83100000      -0.76010000      -0.97640000
N        1.10110000      -0.62350000       0.46770000
H        1.01350000       1.90870000      -0.62420000
H       -0.71430000       1.94910000      -1.01070000
H       -0.18630000       2.10000000       0.66700000
H       -2.20490000      -0.13930000      -0.34530000
H       -1.34990000      -1.55380000       0.31790000
H       -0.92410000      -0.25360000       2.47190000
H        0.50370000      -1.74770000      -1.29030000
H        1.49300000      -0.26080000      -1.67920000
H        1.87320000       0.02210000       0.61480000
