16
Properties=species:S:1:pos:R:3 gdb_13855=T pbc="F F F"
C        0.40560000       0.49270000       0.93020000
C       -0.13620000       0.32330000      -0.46940000
O        0.37530000       0.81830000      -1.44780000
C       -1.42060000      -0.49640000      -0.63870000
C       -1.34360000      -1.49660000      -1.82430000
O       -1.91940000      -2.68160000      -1.29420000
C       -1.60760000      -2.65330000       0.07000000
O       -1.74200000      -1.30610000       0.48890000
H        1.28460000       1.13760000       0.90860000
H       -0.36290000       0.91490000       1.58670000
H        0.65990000      -0.48430000       1.35390000
H       -2.23660000       0.22480000      -0.78010000
H       -1.92510000      -1.18710000      -2.69300000
H       -0.30130000      -1.65460000      -2.13170000
H       -2.31940000      -3.27470000       0.61930000
H       -0.57410000      -3.00630000       0.24690000
