15
Properties=species:S:1:pos:R:3 gdb_14710=T pbc="F F F"
O       -0.44020000       1.40670000      -0.40220000
C        0.00070000       0.08940000      -0.13920000
C       -1.14850000      -0.92280000      -0.17770000
N       -1.71370000      -0.96600000      -1.51690000
C       -2.92640000      -0.66460000      -1.65160000
O       -3.57490000      -0.64560000      -2.85480000
C       -3.03970000      -1.34490000      -3.91530000
O       -3.49230000      -1.22890000      -5.00860000
H       -0.74750000       1.42710000      -1.31480000
H        0.78350000      -0.22550000      -0.84480000
H        0.43530000       0.10120000       0.86530000
H       -0.75490000      -1.91730000       0.06600000
H       -1.89730000      -0.65300000       0.58330000
H       -3.61630000      -0.36740000      -0.85620000
H       -2.20730000      -1.99200000      -3.61100000
