15
Properties=species:S:1:pos:R:3 gdb_13550=T pbc="F F F"
C        0.08230000       1.54560000      -0.25770000
C       -0.03250000       0.07640000       0.05330000
O        1.16870000      -0.71200000       0.04070000
C        0.46530000      -0.58260000       1.27050000
C        1.16770000       0.17180000       2.39180000
O        0.24830000       0.68200000       3.33970000
C        2.17660000      -0.69490000       3.03590000
N        2.92750000      -1.39480000       3.56620000
H        0.94600000       2.00690000       0.22460000
H        0.18740000       1.68860000      -1.33770000
H       -0.82150000       2.07140000       0.06660000
H       -0.87230000      -0.42090000      -0.43590000
H       -0.03600000      -1.49300000       1.60800000
H        1.68790000       1.03730000       1.97480000
H       -0.13380000      -0.05750000       3.82660000
