22
Properties=species:S:1:pos:R:3 gdb_69313=T pbc="F F F"
C       -0.04650000       1.56750000       0.03900000
C        0.08540000       0.06840000      -0.02050000
N       -0.79120000      -0.79440000       0.83120000
C        0.67350000      -0.78660000       1.04660000
C        1.42780000      -1.96120000       0.40440000
C        2.93860000      -1.82540000       0.67110000
C        0.91570000      -3.32660000       0.89450000
C        1.12170000      -1.74030000      -1.07270000
C        0.42170000      -0.62970000      -1.30370000
H        0.83730000       2.05840000      -0.38260000
H       -0.91910000       1.91050000      -0.52930000
H       -0.16260000       1.91290000       1.07170000
H       -1.21670000      -0.20960000       1.55050000
H        1.05790000      -0.35930000       1.96900000
H        3.15680000      -1.94480000       1.73910000
H        3.50260000      -2.59130000       0.12820000
H        3.30930000      -0.84610000       0.35260000
H       -0.16710000      -3.39190000       0.76870000
H        1.38480000      -4.14400000       0.33560000
H        1.15140000      -3.47220000       1.95480000
H        1.43910000      -2.45330000      -1.82730000
H        0.09390000      -0.27240000      -2.27360000
