22
Properties=species:S:1:pos:R:3 gdb_97679=T pbc="F F F"
C        0.45520000       0.93070000       0.65640000
C       -0.21080000       0.45580000      -0.64810000
C       -1.49770000      -0.19880000      -0.43450000
C       -2.55770000      -0.74220000      -0.24270000
C       -3.83220000      -1.37260000       0.00440000
C       -4.95470000      -0.46050000       0.48050000
C       -4.66190000       0.18460000       1.83740000
C       -4.15430000      -2.60110000      -0.78510000
N       -3.82860000      -2.71760000       0.64200000
H        1.41430000       1.41170000       0.44220000
H       -0.18220000       1.64960000       1.17830000
H        0.63430000       0.08860000       1.33050000
H       -0.34740000       1.31150000      -1.32210000
H        0.46280000      -0.23330000      -1.17400000
H       -5.12740000       0.31150000      -0.27900000
H       -5.86750000      -1.06230000       0.54510000
H       -5.49200000       0.82280000       2.15460000
H       -4.51130000      -0.58480000       2.60080000
H       -3.75810000       0.80010000       1.79280000
H       -5.19170000      -2.80720000      -1.03640000
H       -3.42860000      -2.93580000      -1.52020000
H       -2.86800000      -3.03440000       0.74710000
