25
Properties=species:S:1:pos:R:3 gdb_119908=T pbc="F F F"
C       -0.13410000       1.49700000       0.07420000
C       -0.21420000       0.00690000       0.35730000
O       -1.24950000      -0.54550000      -0.44220000
C       -1.40160000      -1.92070000      -0.27550000
C       -2.36580000      -2.45240000       0.77350000
C       -3.08760000      -1.52090000       1.72410000
C       -2.70360000      -2.53370000      -0.71440000
C       -3.77680000      -1.63380000      -1.29850000
C       -2.63680000      -3.90700000      -1.35790000
H        0.66470000       1.95520000       0.66500000
H        0.07010000       1.67570000      -0.98530000
H       -1.07800000       1.98840000       0.32760000
H        0.74300000      -0.48470000       0.11740000
H       -0.41510000      -0.17940000       1.42320000
H       -0.48400000      -2.48440000      -0.45900000
H       -2.07910000      -3.40210000       1.22070000
H       -3.15870000      -0.50890000       1.31980000
H       -4.10390000      -1.87200000       1.93530000
H       -2.55740000      -1.45810000       2.68080000
H       -3.72010000      -0.61740000      -0.90860000
H       -3.66770000      -1.57210000      -2.38740000
H       -4.77630000      -2.03290000      -1.08960000
H       -3.57850000      -4.45150000      -1.21720000
H       -2.45560000      -3.83010000      -2.43670000
H       -1.83580000      -4.51670000      -0.92750000
