22
Properties=species:S:1:pos:R:3 gdb_57773=T pbc="F F F"
C       -0.02830000       1.57480000       0.06060000
C       -0.02920000       0.03360000       0.01120000
C        0.77580000      -0.56420000       1.18250000
C       -1.39660000      -0.48810000      -0.01350000
C       -2.52600000      -0.91270000      -0.02530000
C       -3.88090000      -1.40860000      -0.00220000
C       -4.88520000      -0.55420000       0.74830000
C       -4.32950000      -2.24780000      -1.15640000
N       -4.08000000      -2.87500000       0.14810000
H        0.99840000       1.95370000       0.03510000
H       -0.57470000       1.99610000      -0.78720000
H       -0.50270000       1.93050000       0.98050000
H        0.46380000      -0.27020000      -0.92320000
H        1.80720000      -0.19750000       1.16070000
H        0.32990000      -0.27950000       2.14050000
H        0.79620000      -1.65590000       1.13020000
H       -4.96650000       0.43770000       0.29310000
H       -5.86680000      -1.03410000       0.73440000
H       -4.57850000      -0.42800000       1.79090000
H       -5.37410000      -2.21430000      -1.45530000
H       -3.62530000      -2.41480000      -1.96580000
H       -3.17330000      -3.33580000       0.13580000
