16
Properties=species:S:1:pos:R:3 gdb_56871=T pbc="F F F"
N       -0.25610000       1.58270000       0.01400000
C       -0.00960000       0.14350000      -0.01630000
C       -1.27750000      -0.58050000       0.17310000
N       -2.25980000      -1.18160000       0.26630000
C        0.67620000      -0.37910000      -1.29920000
C        2.19230000      -0.05430000      -1.44180000
C        2.40130000      -1.59230000      -1.43540000
O        3.33270000      -2.33820000      -1.54180000
N        1.04770000      -1.79390000      -1.27250000
H        0.62570000       2.07960000      -0.06690000
H       -0.83440000       1.86080000      -0.77370000
H        0.63600000      -0.10960000       0.83450000
H        0.07180000      -0.09750000      -2.16990000
H        2.48750000       0.43280000      -2.37190000
H        2.64530000       0.46470000      -0.59370000
H        0.48410000      -2.63210000      -1.27910000
