20
Properties=species:S:1:pos:R:3 gdb_103766=T pbc="F F F"
C       -0.20720000       1.81900000       0.45840000
C       -0.11430000       0.34550000       0.12860000
C       -1.33330000      -0.20150000      -0.59480000
O       -1.06610000      -1.53180000      -1.01470000
N        1.21670000      -0.13130000      -0.30600000
C        0.67920000      -0.56870000       0.97900000
C        1.36900000      -0.35740000       2.32290000
O        1.02120000      -1.69950000       2.72980000
C        0.38860000      -1.98790000       1.46250000
H        0.70320000       2.15620000       0.95850000
H       -0.32850000       2.41620000      -0.45250000
H       -1.05960000       2.02600000       1.11580000
H       -2.20530000      -0.16120000       0.07730000
H       -1.55390000       0.44460000      -1.45990000
H       -1.82880000      -1.86130000      -1.49750000
H        1.08870000      -0.87960000      -0.98670000
H        2.45390000      -0.20590000       2.25830000
H        0.93400000       0.39940000       2.98880000
H       -0.66540000      -2.26260000       1.57990000
H        0.90500000      -2.78360000       0.90990000
