23
Properties=species:S:1:pos:R:3 gdb_121093=T pbc="F F F"
C       -0.07070000       1.53290000       0.07300000
C       -0.02020000       0.02560000      -0.11850000
O       -1.31570000      -0.49370000       0.09660000
C       -1.40360000      -1.91220000       0.02720000
C       -2.75860000      -2.35370000       0.62290000
C       -3.27130000      -3.49060000      -0.28960000
C       -2.45250000      -3.33390000      -1.55500000
C       -2.77820000      -4.10650000      -2.79400000
C       -1.44310000      -2.48000000      -1.37410000
H        0.91960000       1.97220000      -0.08100000
H       -0.76640000       1.98610000      -0.63900000
H       -0.40850000       1.77910000       1.08370000
H        0.33880000      -0.21520000      -1.13250000
H        0.69370000      -0.43000000       0.58950000
H       -0.55380000      -2.33570000       0.59250000
H       -2.68340000      -2.64240000       1.67370000
H       -3.42410000      -1.48790000       0.56410000
H       -3.09810000      -4.48060000       0.15560000
H       -4.35000000      -3.43130000      -0.48070000
H       -3.79520000      -3.88230000      -3.14070000
H       -2.08290000      -3.88300000      -3.60750000
H       -2.74740000      -5.18770000      -2.60650000
H       -0.69990000      -2.23450000      -2.12530000
