21
Properties=species:S:1:pos:R:3 gdb_89369=T pbc="F F F"
C       -0.19840000       1.54850000       0.02880000
C        0.05330000       0.04320000      -0.01100000
C        0.93040000      -0.46650000      -1.19360000
C        2.02100000      -1.30800000      -0.44020000
C        2.68900000      -2.41800000      -1.21540000
O        1.24560000      -1.82210000       0.66060000
C        0.85610000      -0.55550000       1.19950000
C        2.19010000       0.17470000       1.29390000
C        2.91050000      -0.28680000       0.27270000
H        0.74210000       2.10840000       0.03000000
H       -0.77690000       1.87150000      -0.84290000
H       -0.76430000       1.83520000       0.92280000
H       -0.90750000      -0.48040000      -0.03210000
H        0.35920000      -1.11010000      -1.86840000
H        1.36690000       0.34420000      -1.78370000
H        3.25140000      -2.00940000      -2.06090000
H        3.38110000      -2.97330000      -0.57600000
H        1.94200000      -3.11560000      -1.60540000
H        0.28480000      -0.68260000       2.11930000
H        2.43090000       0.96860000       1.98780000
H        3.88290000       0.03690000      -0.07550000
