19
Properties=species:S:1:pos:R:3 gdb_96414=T pbc="F F F"
O       -0.11530000       1.43290000       0.01110000
C       -0.02400000       0.02400000      -0.00930000
C       -1.43830000      -0.54220000       0.08570000
C       -1.42120000      -2.07590000       0.00500000
C       -0.67080000      -2.54450000      -1.25060000
N        0.67730000      -1.97510000      -1.38550000
C        0.69310000      -0.51290000      -1.28380000
C        0.10430000       0.07790000      -2.50040000
N       -0.36070000       0.53550000      -3.45360000
H        0.77140000       1.80810000      -0.01160000
H        0.56820000      -0.34650000       0.84530000
H       -1.89650000      -0.19600000       1.01700000
H       -2.03110000      -0.12440000      -0.73710000
H       -0.92990000      -2.48960000       0.89650000
H       -2.44500000      -2.46630000       0.00010000
H       -0.57290000      -3.63400000      -1.26690000
H       -1.23780000      -2.26340000      -2.14690000
H        1.28680000      -2.35150000      -0.66610000
H        1.74350000      -0.19400000      -1.25680000
