14
Properties=species:S:1:pos:R:3 gdb_8771=T pbc="F F F"
O        0.26410000       1.52950000      -0.02260000
C        0.09250000       0.13900000       0.02940000
C        0.67790000      -0.49940000      -1.21890000
O        1.10800000       0.17190000      -2.12330000
C        0.80290000      -0.41410000       1.29200000
O        2.15810000      -0.00990000       1.26940000
C        0.10540000      -0.00130000       2.51390000
C       -0.46380000       0.34440000       3.51370000
H        0.61200000       1.71210000      -0.91160000
H       -0.97520000      -0.13690000       0.07410000
H        0.67180000      -1.60700000      -1.25980000
H        0.80890000      -1.51040000       1.23920000
H        2.13470000       0.94880000       1.14090000
H       -0.96210000       0.64820000       4.40130000
