18
Properties=species:S:1:pos:R:3 gdb_11288=T pbc="F F F"
C       -0.20460000       1.44830000       0.03830000
C        0.09540000      -0.04350000       0.16640000
C        0.71550000      -0.67920000      -1.10470000
N        1.77620000      -1.58850000      -0.62330000
C        1.64040000      -1.76970000       0.82140000
C        1.10870000      -0.39730000       1.27160000
C        0.71010000      -2.86060000       1.19440000
N       -0.01150000      -3.73050000       1.44080000
H        0.70850000       2.01420000      -0.17870000
H       -0.91690000       1.64090000      -0.77060000
H       -0.63710000       1.84680000       0.96170000
H       -0.83870000      -0.57130000       0.39200000
H       -0.04960000      -1.19810000      -1.69540000
H        1.16210000       0.08730000      -1.75120000
H        1.81190000      -2.46470000      -1.12750000
H        2.61200000      -2.00150000       1.27170000
H        1.94610000       0.30820000       1.26940000
H        0.67200000      -0.41640000       2.27190000
