20
Properties=species:S:1:pos:R:3 gdb_106418=T pbc="F F F"
C       -0.03440000       1.31150000       0.03020000
O        0.07580000      -0.09770000      -0.04890000
C        0.70360000      -0.56020000      -1.18020000
C        0.28080000      -0.40550000      -2.68710000
C        1.53190000      -1.33820000      -2.68080000
C        2.18680000      -0.36540000      -1.65140000
C        0.89360000      -2.04770000      -1.47370000
C        1.20470000      -3.20260000      -0.62730000
N       -0.05020000      -3.13920000      -1.44600000
H        0.95270000       1.79400000       0.04090000
H       -0.61560000       1.71910000      -0.80840000
H       -0.55120000       1.53910000       0.96490000
H       -0.66600000      -0.86280000      -2.98010000
H        0.42330000       0.57990000      -3.13790000
H        2.00910000      -1.79340000      -3.54370000
H        2.45040000       0.62160000      -2.03840000
H        2.96470000      -0.77840000      -1.00560000
H        1.91190000      -3.96200000      -0.94930000
H        1.11650000      -3.08780000       0.45020000
H       -0.83590000      -2.90700000      -0.84100000
