14
Properties=species:S:1:pos:R:3 gdb_25203=T pbc="F F F"
N       -0.01360000       1.35790000      -0.16120000
C       -0.03590000       0.11790000       0.03810000
O        1.16420000      -0.59900000       0.06650000
C        1.51440000      -1.54830000       0.95580000
C        0.74750000      -2.25820000       1.80140000
C       -0.68830000      -2.29150000       1.88250000
C       -1.60130000      -1.63700000       1.13150000
C       -1.37400000      -0.62100000       0.10580000
O       -2.25320000      -0.27200000      -0.65480000
H        0.94770000       1.70310000      -0.20050000
H        2.58710000      -1.70450000       0.91170000
H        1.29050000      -2.94030000       2.44600000
H       -1.08020000      -2.99660000       2.61150000
H       -2.65490000      -1.85840000       1.26950000
