11
Properties=species:S:1:pos:R:3 gdb_21982=T pbc="F F F"
O       -0.06580000       0.02830000       0.00440000
N       -0.03970000       1.25550000       0.00640000
O        0.96200000       1.95010000       0.00290000
C       -1.33580000       1.91040000       0.01720000
N       -1.41950000       3.23330000       0.02140000
N       -2.73730000       3.45020000       0.03110000
C       -3.48130000       2.31090000       0.03310000
C       -2.58710000       1.26450000       0.02400000
H       -3.06770000       4.40170000       0.03590000
H       -4.55910000       2.33750000       0.04060000
H       -2.78200000       0.20730000       0.02250000
