17
Properties=species:S:1:pos:R:3 gdb_20729=T pbc="F F F"
C       -0.11660000       1.47040000      -0.06160000
C       -0.06470000      -0.02180000       0.02790000
N       -0.08020000      -0.76330000      -1.07420000
N       -0.01680000      -2.04080000      -0.61960000
C        0.04760000      -2.11780000       0.73340000
N        0.06660000      -3.35930000       1.38380000
C        0.02110000      -0.81690000       1.20550000
C        0.08690000      -0.35970000       2.62920000
H        0.75650000       1.93490000       0.41220000
H       -0.14180000       1.77690000      -1.10940000
H       -1.00490000       1.87450000       0.43790000
H       -0.08880000      -2.80400000      -1.26960000
H        0.87930000      -3.91880000       1.14710000
H        0.03400000      -3.24760000       2.38890000
H        0.50640000      -1.13520000       3.28130000
H        0.72500000       0.52440000       2.73580000
H       -0.89680000      -0.09380000       3.03750000
