13
Properties=species:S:1:pos:R:3 gdb_20754=T pbc="F F F"
C       -0.02390000       1.53630000       0.01700000
C       -0.00230000       0.03390000      -0.00010000
N       -0.05800000      -0.52590000      -1.16430000
O       -0.04010000      -1.91190000      -1.21770000
C        0.03400000      -2.74330000      -0.10540000
O        0.04130000      -3.93080000      -0.28680000
C        0.09420000      -2.06120000       1.18070000
C        0.07670000      -0.71930000       1.23060000
H        0.88080000       1.93040000       0.49270000
H       -0.08620000       1.92120000      -1.00130000
H       -0.88200000       1.90390000       0.59050000
H        0.15190000      -2.69330000       2.05850000
H        0.12050000      -0.18240000       2.17310000
