22
Properties=species:S:1:pos:R:3 gdb_110029=T pbc="F F F"
C        0.27710000       1.37090000      -0.20620000
C        0.01660000      -0.12200000       0.02270000
N       -1.39330000      -0.47440000       0.09450000
C       -2.11710000      -0.71510000       1.34050000
C       -2.38290000       0.56430000       2.14430000
C       -3.41460000      -1.41280000       0.85020000
C       -3.56590000      -0.97440000      -0.61410000
C       -2.14570000      -0.60600000      -1.04140000
O       -1.73530000      -0.43930000      -2.17380000
H        1.35360000       1.55830000      -0.27570000
H       -0.18720000       1.68760000      -1.14310000
H       -0.12310000       1.98390000       0.60680000
H        0.45030000      -0.68860000      -0.80790000
H        0.49580000      -0.46370000       0.94660000
H       -1.52970000      -1.39880000       1.96740000
H       -2.98600000       1.27310000       1.56720000
H       -2.92090000       0.32520000       3.06770000
H       -1.44850000       1.06120000       2.42180000
H       -3.28760000      -2.49780000       0.90330000
H       -4.27170000      -1.15090000       1.47470000
H       -3.97210000      -1.74400000      -1.27280000
H       -4.19930000      -0.08720000      -0.72580000
