19
Properties=species:S:1:pos:R:3 gdb_70431=T pbc="F F F"
C       -0.12150000       1.53410000       0.01390000
C        0.14550000       0.06500000       0.00260000
O       -0.80300000      -0.80460000       0.64890000
C        0.57710000      -0.89300000       1.03620000
C        1.26930000      -1.78740000       0.00200000
C        0.78050000      -0.80160000      -1.10630000
C       -0.04940000      -1.20150000      -2.33710000
O        0.83680000      -0.47700000      -3.22020000
C        1.74790000      -0.19570000      -2.14110000
H        0.78130000       2.10160000      -0.23220000
H       -0.89330000       1.79620000      -0.71870000
H       -0.47090000       1.84470000       1.00190000
H        0.80480000      -0.74990000       2.08660000
H        2.35970000      -1.79150000       0.09280000
H        0.90200000      -2.81560000      -0.05270000
H       -0.05750000      -2.27710000      -2.55810000
H       -1.07740000      -0.82230000      -2.37190000
H        1.96490000       0.87650000      -2.05140000
H        2.69660000      -0.74020000      -2.24920000
