18
Properties=species:S:1:pos:R:3 gdb_46949=T pbc="F F F"
O        0.01890000      -0.04410000      -0.08680000
C       -0.03160000       1.17160000      -0.01690000
N       -1.22480000       1.84590000      -0.00400000
C       -1.39710000       3.28990000      -0.09570000
C       -0.17130000       4.00420000       0.45720000
C        0.30840000       3.53130000       1.87330000
C        1.55630000       2.93850000       1.21960000
C        1.16760000       3.51200000      -0.13260000
C        1.20430000       2.02010000       0.05610000
H       -2.03180000       1.25030000      -0.11710000
H       -1.57670000       3.60390000      -1.13620000
H       -2.28500000       3.57220000       0.48340000
H       -0.30870000       5.08470000       0.39160000
H        0.54890000       4.38020000       2.51720000
H       -0.34700000       2.84530000       2.41770000
H        2.53810000       2.86910000       1.67150000
H        1.76790000       4.02280000      -0.87500000
H        2.06580000       1.50500000      -0.35300000
