23
Properties=species:S:1:pos:R:3 gdb_77667=T pbc="F F F"
C       -0.12340000       1.60100000       0.09710000
C        0.13480000       0.11440000       0.03570000
C        0.58900000      -0.47170000      -1.29870000
C        1.17960000      -1.86050000      -0.96780000
C        1.69660000      -1.73970000       0.48260000
C        0.82630000      -0.67710000       1.15000000
C        1.34030000      -0.06190000       2.43030000
C       -0.65920000      -0.82870000       0.92690000
O       -1.48500000      -0.29010000       1.92430000
H        0.78790000       2.17000000      -0.12110000
H       -0.87530000       1.89900000      -0.64480000
H       -0.48720000       1.90840000       1.08000000
H       -0.21960000      -0.52810000      -2.03790000
H        1.36120000       0.18280000      -1.72440000
H        0.40140000      -2.62760000      -1.03000000
H        1.96470000      -2.15790000      -1.66810000
H        1.67740000      -2.69870000       1.01390000
H        2.73790000      -1.39190000       0.49140000
H        2.28730000       0.46350000       2.25970000
H        0.62420000       0.64100000       2.85830000
H        1.52600000      -0.83760000       3.18270000
H       -1.03620000      -1.76260000       0.50600000
H       -2.27320000       0.06280000       1.49830000
