18
Properties=species:S:1:pos:R:3 gdb_6190=T pbc="F F F"
C        0.11400000       1.44380000       0.07360000
C       -0.07790000      -0.08040000      -0.01560000
C       -1.56240000      -0.44190000      -0.08750000
C        0.72860000      -0.67350000      -1.20670000
N        2.02010000      -0.93830000      -0.59590000
C        1.88840000      -1.13790000       0.77380000
O        2.73820000      -1.54870000       1.53140000
N        0.58740000      -0.76950000       1.09660000
H        1.17690000       1.70090000       0.06160000
H       -0.37510000       1.95020000      -0.76510000
H       -0.32350000       1.83290000       0.99940000
H       -2.01700000      -0.03120000      -0.99540000
H       -1.69570000      -1.52670000      -0.08790000
H       -2.10660000      -0.03120000       0.76970000
H        0.24450000      -1.58840000      -1.57820000
H        0.80480000       0.03750000      -2.03500000
H        2.72080000      -1.48580000      -1.06950000
H        0.43080000      -0.46760000       2.04660000
