19
Properties=species:S:1:pos:R:3 gdb_111339=T pbc="F F F"
C        0.40070000       0.63880000      -0.23490000
O       -0.80280000       0.57830000       0.51670000
C       -1.64350000      -0.50960000       0.27790000
C       -1.97610000      -1.05250000      -1.12680000
N       -0.80310000      -1.80710000      -1.64270000
C       -1.71570000      -2.45320000      -0.67070000
C       -1.25580000      -1.96150000       0.68530000
C       -0.16820000      -2.42410000       1.56450000
N       -1.58740000      -2.59960000       1.95020000
H        0.97330000       1.47340000       0.17770000
H        0.98290000      -0.28530000      -0.15840000
H        0.20510000       0.82830000      -1.29720000
H       -2.58640000      -0.25730000       0.77870000
H       -2.73610000      -0.68090000      -1.80290000
H       -1.06120000      -2.14210000      -2.57090000
H       -2.25530000      -3.36270000      -0.89880000
H        0.36500000      -3.34380000       1.34110000
H        0.41590000      -1.66500000       2.07890000
H       -1.85070000      -1.89560000       2.63740000
