23
Properties=species:S:1:pos:R:3 gdb_85915=T pbc="F F F"
C        0.68970000       1.53740000      -0.16680000
C       -0.02260000       0.19840000       0.10020000
C        0.16000000      -0.82460000      -1.04920000
C        1.30290000      -1.76360000      -0.60400000
C        1.14150000      -3.20850000      -1.07970000
O        2.52090000      -1.21670000      -1.15750000
C        1.27650000      -1.59980000       0.90140000
C        0.56970000      -0.53770000       1.29360000
C        0.37190000      -0.05360000       2.69590000
H        1.74360000       1.36030000      -0.39940000
H        0.23280000       2.05390000      -1.01730000
H        0.63090000       2.20780000       0.69710000
H       -1.08760000       0.40560000       0.26990000
H       -0.75640000      -1.40850000      -1.17680000
H        0.39880000      -0.35860000      -2.00870000
H        1.12610000      -3.24890000      -2.17310000
H        1.97800000      -3.82650000      -0.73160000
H        0.21670000      -3.65210000      -0.69720000
H        3.26040000      -1.63840000      -0.70660000
H        1.82190000      -2.26620000       1.56480000
H        0.87570000      -0.69800000       3.42150000
H        0.75570000       0.96590000       2.82470000
H       -0.69450000      -0.01770000       2.95340000
