24
Properties=species:S:1:pos:R:3 gdb_99749=T pbc="F F F"
C       -0.02290000       1.73240000       0.35130000
C       -0.06110000       0.23110000       0.03310000
N       -1.39580000      -0.36550000       0.03310000
C       -2.10030000      -0.55960000      -1.24980000
C       -2.19330000       0.72720000      -2.07570000
C       -1.48850000      -1.71660000      -2.05300000
C       -1.96990000      -0.91060000       1.15940000
C       -1.18930000      -0.81750000       2.46530000
O       -3.05740000      -1.46690000       1.13410000
H        1.01330000       2.08730000       0.35470000
H       -0.57820000       2.31280000      -0.38890000
H       -0.45510000       1.94420000       1.33340000
H        0.38120000       0.06040000      -0.95320000
H        0.57770000      -0.30730000       0.73850000
H       -3.10830000      -0.85450000      -0.95500000
H       -2.81140000       0.54670000      -2.96070000
H       -2.65540000       1.53400000      -1.50000000
H       -1.21460000       1.07000000      -2.42940000
H       -1.49120000      -2.63590000      -1.46120000
H       -2.07120000      -1.89530000      -2.96240000
H       -0.45780000      -1.50570000      -2.36050000
H       -0.81850000       0.18790000       2.67780000
H       -1.86030000      -1.13260000       3.26350000
H       -0.32680000      -1.49320000       2.45130000
