11
Properties=species:S:1:pos:R:3 gdb_192=T pbc="F F F"
C        0.06150000       1.48870000       0.06140000
C       -0.06700000       0.01200000      -0.00220000
C       -1.07240000      -0.85560000      -0.27560000
N       -0.60420000      -2.16310000      -0.18450000
C        0.63880000      -2.02440000       0.13370000
O        1.05040000      -0.74070000       0.26520000
H        0.80420000       1.85890000      -0.65400000
H       -0.89960000       1.95160000      -0.17310000
H        0.36900000       1.82300000       1.05840000
H       -2.09710000      -0.63680000      -0.53080000
H        1.37900000      -2.79000000       0.30530000
