16
Properties=species:S:1:pos:R:3 gdb_104275=T pbc="F F F"
O       -0.13900000       1.46970000      -0.05420000
C       -0.00590000       0.05700000      -0.17410000
C       -1.41860000      -0.49120000      -0.02030000
O       -1.99630000      -0.04150000       1.16750000
C       -2.28680000      -0.42020000      -1.30610000
O       -2.13090000      -1.84630000      -1.52310000
C       -1.55990000      -2.02780000      -0.21760000
C       -0.34780000      -2.84720000      -0.22300000
N        0.62540000      -3.47050000      -0.21000000
H        0.73520000       1.85700000       0.04530000
H        0.41850000      -0.23480000      -1.14390000
H        0.63040000      -0.35540000       0.62090000
H       -1.66490000       0.85750000       1.30140000
H       -3.32720000      -0.15100000      -1.09490000
H       -1.90250000       0.16450000      -2.14650000
H       -2.27930000      -2.44530000       0.49870000
