23
Properties=species:S:1:pos:R:3 gdb_104393=T pbc="F F F"
C       -0.51880000       1.42900000      -0.07740000
C        0.13320000       0.04680000      -0.04930000
C        1.28300000      -0.14160000      -1.05450000
C        1.99470000      -1.36600000      -0.48690000
O        1.91740000      -1.22110000       0.92770000
C        0.78250000      -0.39170000       1.29560000
C        1.32970000       0.75010000       2.15330000
C       -0.15040000      -1.29810000       2.11610000
O        0.52290000      -1.88790000       3.20880000
H        0.21020000       2.22510000       0.10070000
H       -0.97750000       1.61200000      -1.05450000
H       -1.30730000       1.52000000       0.67690000
H       -0.63970000      -0.69560000      -0.29240000
H        0.93360000      -0.28400000      -2.08070000
H        1.94900000       0.72910000      -1.04080000
H        1.49690000      -2.29340000      -0.81210000
H        3.05120000      -1.43540000      -0.76400000
H        2.05290000       1.35010000       1.59430000
H        0.52650000       1.40550000       2.50350000
H        1.82890000       0.33080000       3.02910000
H       -0.98680000      -0.72070000       2.52660000
H       -0.57030000      -2.06760000       1.44740000
H        1.32620000      -2.26910000       2.83140000
