17
Properties=species:S:1:pos:R:3 gdb_68876=T pbc="F F F"
O       -0.27480000       1.27960000      -0.06160000
C       -0.01130000      -0.08670000       0.00920000
C       -0.31930000      -0.90450000       1.25030000
C       -1.19660000      -1.01830000       0.01960000
O       -2.50050000      -0.54850000      -0.00350000
C       -0.73490000      -1.98140000      -1.09520000
C       -0.27370000      -0.99990000      -2.20750000
C        0.80500000      -0.77160000      -1.11360000
O        0.67420000      -2.18090000      -0.75960000
H        0.32080000       1.74640000       0.53320000
H        0.33790000      -1.71140000       1.54790000
H       -0.77890000      -0.33930000       2.05530000
H       -2.45300000       0.41200000      -0.10820000
H       -1.29380000      -2.89800000      -1.27880000
H        0.12170000      -1.51530000      -3.08410000
H       -0.93060000      -0.17090000      -2.48040000
H        1.82630000      -0.44830000      -1.31700000
