20
Properties=species:S:1:pos:R:3 gdb_67468=T pbc="F F F"
C       -0.12650000       1.50350000      -0.05390000
C        0.05750000       0.01940000       0.03260000
C        0.85360000      -0.81240000      -0.88720000
C        1.87560000      -1.81570000      -0.38470000
O        1.60310000      -2.39370000       0.88110000
C        1.03770000      -1.50260000       1.82940000
C       -0.22610000      -0.85650000       1.26910000
C       -1.03260000      -1.76880000       0.30880000
N       -0.62630000      -0.96970000      -0.90160000
H        0.65180000       2.03080000       0.51080000
H       -0.07640000       1.83780000      -1.09440000
H       -1.09800000       1.80600000       0.35330000
H        1.18110000      -0.32680000      -1.80480000
H        1.97120000      -2.65690000      -1.08020000
H        2.84880000      -1.29340000      -0.36340000
H        0.82020000      -2.11760000       2.70830000
H        1.76330000      -0.72570000       2.12690000
H       -0.81080000      -0.36940000       2.05220000
H       -0.75940000      -2.82550000       0.27550000
H       -2.11330000      -1.67290000       0.43340000
