17
Properties=species:S:1:pos:R:3 gdb_16115=T pbc="F F F"
N        0.03790000      -1.13780000      -0.35270000
C        0.03060000       0.00370000      -0.16070000
C        0.01220000       1.41580000       0.08860000
C        0.25260000       2.36540000      -1.07660000
C        1.28860000       2.25630000       0.00360000
C        1.25140000       3.26130000       1.14390000
C       -0.23550000       3.33970000       1.56170000
C       -0.82130000       1.94160000       1.26000000
H        0.48190000       1.90740000      -2.03140000
H       -0.37080000       3.25070000      -1.14360000
H        2.22800000       1.77620000      -0.24420000
H        1.86450000       2.88460000       1.97050000
H        1.65460000       4.23890000       0.86040000
H       -0.35890000       3.61730000       2.61100000
H       -0.75480000       4.10230000       0.97380000
H       -1.89150000       1.97190000       1.03540000
H       -0.68560000       1.26990000       2.11410000
