11
Properties=species:S:1:pos:R:3 gdb_130845=T pbc="F F F"
O       -0.00270000      -0.06360000      -0.00270000
C       -0.01450000       1.13860000       0.00880000
C        1.21440000       1.96970000       0.00260000
C        1.38700000       3.33490000       0.01310000
C        0.39770000       4.42490000       0.03430000
O        0.68510000       5.59430000       0.04190000
N        2.75340000       3.54840000      -0.00040000
N        3.37380000       2.46710000      -0.01710000
O        2.40110000       1.38770000      -0.01630000
H       -0.95260000       1.72640000       0.02500000
H       -0.65800000       4.08130000       0.04300000
