15
Properties=species:S:1:pos:R:3 gdb_1776=T pbc="F F F"
C       -0.12500000       1.56440000       0.02170000
C       -0.04800000       0.05490000       0.05950000
C        1.28460000      -0.64610000      -0.23980000
C        0.75250000      -0.64190000       1.15430000
O        1.31010000       0.18660000       2.12630000
C       -1.26210000      -0.67350000      -0.38860000
O       -2.27360000      -0.14740000      -0.78180000
H        0.76370000       2.00840000       0.47200000
H       -0.22080000       1.91720000      -1.00910000
H       -1.00260000       1.91430000       0.57190000
H        1.27120000      -1.57310000      -0.80420000
H        2.11260000       0.01790000      -0.46230000
H        0.34120000      -1.57760000       1.53490000
H        2.17490000      -0.16750000       2.35900000
H       -1.17660000      -1.78580000      -0.33850000
