22
Properties=species:S:1:pos:R:3 gdb_60261=T pbc="F F F"
C       -0.06710000       1.57780000      -0.29140000
C        0.03440000       0.06260000      -0.06260000
C        0.75030000      -0.61240000      -1.24210000
C        0.73510000      -0.30130000       1.26090000
C       -0.07340000      -0.06770000       2.54530000
C        0.61570000      -0.65970000       3.80920000
O        0.69110000       0.45090000       4.73540000
C        0.19110000       1.51030000       4.05740000
N       -0.25090000       1.36250000       2.88090000
H        0.93360000       2.01970000      -0.37690000
H       -0.60190000       1.79130000      -1.22340000
H       -0.57910000       2.07520000       0.53330000
H       -0.98680000      -0.34430000      -0.01560000
H        1.78870000      -0.26750000      -1.31820000
H        0.76910000      -1.70240000      -1.13420000
H        0.25530000      -0.37680000      -2.18990000
H        0.98750000      -1.37070000       1.23680000
H        1.68890000       0.23860000       1.34030000
H       -1.07070000      -0.50550000       2.40890000
H        0.05090000      -1.46370000       4.28700000
H        1.63530000      -1.00710000       3.61160000
H        0.20920000       2.44250000       4.61160000
