17
Properties=species:S:1:pos:R:3 gdb_104950=T pbc="F F F"
C       -0.15260000       1.39940000       0.16060000
C        0.38260000      -0.03570000       0.12910000
C        0.77540000      -0.48400000      -1.26880000
C        0.50340000      -1.86790000      -1.72320000
O       -0.32530000      -0.79630000      -2.14800000
C        1.86780000       0.22450000      -1.88940000
C        2.79880000       0.83340000      -2.36240000
C        3.88990000       1.54700000      -2.97410000
O        4.78300000       2.08620000      -2.36170000
H        0.60540000       2.11120000      -0.17990000
H       -1.02870000       1.49810000      -0.48690000
H       -0.44520000       1.67850000       1.17640000
H        1.25700000      -0.13160000       0.78300000
H       -0.37880000      -0.73050000       0.49830000
H        1.12970000      -2.31450000      -2.49300000
H        0.05690000      -2.56290000      -1.01300000
H        3.85050000       1.56680000      -4.08200000
