21
Properties=species:S:1:pos:R:3 gdb_79783=T pbc="F F F"
C       -0.19030000       1.60360000      -0.03820000
C        0.02600000       0.09780000       0.00800000
C        1.18740000      -0.57060000      -0.78450000
C        2.48690000       0.10080000      -0.30530000
C        3.55300000      -1.02480000      -0.27300000
C        2.68360000      -1.59750000       0.85780000
C        2.19700000      -0.15610000       1.23300000
C        0.69310000      -0.57490000       1.22430000
C        1.23170000      -1.72080000       0.30610000
H        0.71610000       2.14930000       0.24280000
H       -0.48120000       1.93410000      -1.04200000
H       -0.98540000       1.90650000       0.65220000
H       -0.91030000      -0.42740000      -0.21940000
H        1.09820000      -0.78300000      -1.85110000
H        2.72130000       1.09010000      -0.69800000
H        3.70480000      -1.61800000      -1.18180000
H        4.51890000      -0.66650000       0.09680000
H        3.03450000      -2.33460000       1.57970000
H        2.66460000       0.47670000       1.98500000
H        0.18790000      -0.73500000       2.17720000
H        0.71370000      -2.65970000       0.11980000
