19
Properties=species:S:1:pos:R:3 gdb_2800=T pbc="F F F"
C        0.07830000       1.59120000       0.08890000
C        0.06000000       0.05870000       0.07620000
C        0.64200000      -0.51910000      -1.21110000
C        2.18250000      -0.49680000      -1.33280000
O        2.25990000      -1.93320000      -1.25760000
C        0.81870000      -2.06220000      -1.32190000
C        0.27230000      -2.99230000      -0.25700000
H        1.09780000       1.97910000      -0.01480000
H       -0.51570000       2.00020000      -0.73610000
H       -0.33170000       1.98570000       1.02350000
H        0.62240000      -0.31930000       0.93870000
H       -0.97130000      -0.29490000       0.20180000
H        0.12320000      -0.08500000      -2.07140000
H        2.57340000      -0.11330000      -2.28480000
H        2.72600000      -0.01450000      -0.50960000
H        0.51940000      -2.43350000      -2.31400000
H        0.53680000      -2.65680000       0.74900000
H       -0.81840000      -3.06600000      -0.32880000
H        0.68810000      -3.99500000      -0.39940000
