18
Properties=species:S:1:pos:R:3 gdb_84575=T pbc="F F F"
O        0.11200000       1.45570000      -0.03290000
C        0.04390000       0.03920000      -0.03420000
C        0.70130000      -0.56390000       1.19850000
C       -0.13070000      -1.26570000       1.96860000
C       -1.50600000      -1.34030000       1.37360000
C       -2.61400000      -0.35380000       1.83240000
N       -2.05360000       1.01860000       1.78270000
C       -2.53770000       0.37490000       0.53530000
C       -1.40240000      -0.53870000       0.03230000
H       -0.35100000       1.72180000       0.77650000
H        0.55280000      -0.26750000      -0.95520000
H        1.74270000      -0.35640000       1.42270000
H        0.13200000      -1.72300000       2.91690000
H       -1.90190000      -2.35380000       1.26700000
H       -3.46620000      -0.56510000       2.46650000
H       -2.78570000       1.65120000       2.10160000
H       -3.31820000       0.84120000      -0.05250000
H       -1.68220000      -1.10830000      -0.85430000
