17
Properties=species:S:1:pos:R:3 gdb_55073=T pbc="F F F"
N        0.44570000       0.54450000      -0.59090000
C        0.01270000      -0.26480000       0.41140000
O        0.65580000      -0.46500000       1.42570000
C       -1.34220000      -0.90480000       0.21030000
C       -1.90140000      -1.30680000      -1.13860000
C       -1.42450000      -2.36070000      -0.19030000
O       -0.26310000      -3.03820000      -0.58190000
C        0.54090000      -3.47450000       0.42800000
N        1.48990000      -4.25690000       0.15480000
H        1.33930000       0.99730000      -0.48830000
H       -0.12190000       0.75580000      -1.39120000
H       -2.04960000      -0.59810000       0.97480000
H       -2.96480000      -1.20270000      -1.32060000
H       -1.27160000      -1.16240000      -2.01000000
H       -2.15570000      -2.98820000       0.31320000
H        0.27690000      -3.05720000       1.40430000
H        2.01270000      -4.46830000       1.00270000
