16
Properties=species:S:1:pos:R:3 gdb_54668=T pbc="F F F"
N        0.02590000       1.13450000       0.34270000
C        0.09380000      -0.22030000       0.29980000
O        1.11790000      -0.87140000       0.32460000
C       -1.26840000      -0.87060000       0.20210000
N       -2.34000000      -0.20320000       0.01110000
C       -3.45110000      -1.16610000      -0.08260000
C       -2.78240000      -2.53800000       0.01010000
C       -1.73980000      -2.89140000      -0.98340000
N       -1.35240000      -2.28700000       0.31820000
H        0.88080000       1.66400000       0.33640000
H       -0.86570000       1.59030000       0.23810000
H       -4.14600000      -1.00250000       0.74950000
H       -4.01280000      -0.99620000      -1.00800000
H       -3.25860000      -3.32500000       0.58490000
H       -1.43420000      -3.92520000      -1.10600000
H       -1.63340000      -2.26840000      -1.86770000
