19
Properties=species:S:1:pos:R:3 gdb_49989=T pbc="F F F"
O       -0.01060000      -0.01340000      -0.32520000
C        0.07130000       1.13250000       0.04660000
C        1.30810000       1.93640000       0.05470000
C        1.18460000       3.45160000      -0.12520000
C        1.54990000       2.91490000       1.20380000
C        0.75670000       3.09210000       2.52130000
C        2.09680000       3.29990000       3.24340000
C        2.99460000       2.11370000       3.04130000
C        2.86390000       3.11670000       1.92600000
H       -0.82670000       1.67820000       0.42470000
H        2.17750000       1.44140000      -0.36550000
H        1.94820000       3.93120000      -0.72870000
H        0.18390000       3.85200000      -0.26370000
H        0.13210000       3.98900000       2.50340000
H        0.15390000       2.24630000       2.86790000
H        2.27320000       4.02670000       4.02600000
H        3.93540000       2.14600000       3.58150000
H        2.57610000       1.11610000       2.93000000
H        3.71000000       3.67200000       1.53860000
