23
Properties=species:S:1:pos:R:3 gdb_86540=T pbc="F F F"
C       -0.52460000       1.34080000       0.15070000
C        0.16330000       0.00010000      -0.01110000
C        0.92810000      -0.27260000      -1.32570000
C        2.17430000      -0.36890000      -0.42520000
O        1.39410000      -0.08460000       0.75960000
C        2.94800000      -1.69810000      -0.33970000
C        4.02730000      -1.57610000       0.74250000
C        2.03900000      -2.89330000      -0.05680000
O        3.53580000      -1.94200000      -1.62300000
H        0.13700000       2.15890000      -0.15120000
H       -1.43130000       1.38120000      -0.46350000
H       -0.81210000       1.50000000       1.19480000
H       -0.51840000      -0.81030000       0.28000000
H        0.65810000      -1.18160000      -1.86240000
H        0.93630000       0.56420000      -2.02700000
H        2.90910000       0.43230000      -0.60270000
H        3.57420000      -1.35860000       1.71390000
H        4.60290000      -2.50300000       0.81670000
H        4.72070000      -0.75830000       0.50940000
H        1.34460000      -3.06440000      -0.88300000
H        2.64110000      -3.79790000       0.06250000
H        1.46950000      -2.72390000       0.85980000
H        4.22350000      -1.28170000      -1.76320000
