18
Properties=species:S:1:pos:R:3 gdb_24147=T pbc="F F F"
C       -0.00590000       1.53940000       0.55530000
C       -0.42700000       0.37900000      -0.32100000
C       -0.08350000      -1.03920000       0.06940000
C       -1.51290000      -0.55980000       0.13380000
C        1.39380000       2.00910000       0.30650000
C        2.38230000       1.46250000      -0.44350000
O        3.48820000       2.26760000      -0.35550000
C        3.09800000       3.27190000       0.45770000
N        1.88170000       3.18490000       0.88210000
H       -0.68570000       2.38950000       0.41460000
H       -0.10560000       1.25740000       1.61250000
H       -0.40330000       0.59550000      -1.38610000
H        0.18930000      -1.74220000      -0.71010000
H        0.44140000      -1.19150000       1.00690000
H       -1.94690000      -0.39390000       1.11450000
H       -2.21520000      -0.93130000      -0.60390000
H        2.47670000       0.58170000      -1.05290000
H        3.82830000       4.03770000       0.66800000
