17
Properties=species:S:1:pos:R:3 gdb_19665=T pbc="F F F"
O        0.06180000       1.48750000      -0.04790000
C        0.01440000       0.08740000       0.04190000
C        0.12670000      -0.64420000       1.41470000
C       -0.99780000       0.07920000       2.17570000
N       -2.14580000      -0.33680000       1.30630000
C       -2.07720000      -1.83550000       1.51960000
C       -0.75400000      -1.80190000       0.76600000
C       -1.34600000      -0.58620000      -0.01270000
H        0.98290000       1.76480000      -0.01450000
H        0.66390000      -0.39180000      -0.70510000
H        1.08630000      -0.83240000       1.89530000
H       -1.15490000      -0.26050000       3.20170000
H       -0.87730000       1.16340000       2.16290000
H       -2.12140000      -2.15520000       2.56580000
H       -2.86880000      -2.33070000       0.94990000
H       -0.24870000      -2.65270000       0.30890000
H       -1.98190000      -0.63830000      -0.89400000
