17
Properties=species:S:1:pos:R:3 gdb_29727=T pbc="F F F"
C        0.03300000       1.41690000       0.01440000
N        0.01610000      -0.03230000      -0.00860000
C        0.01120000      -0.83130000      -1.12990000
C        0.02310000      -0.28860000      -2.51740000
C       -0.00590000      -2.12240000      -0.65010000
N       -0.01160000      -2.14610000       0.71370000
C        0.00190000      -0.87530000       1.08480000
C        0.00230000      -0.39270000       2.41300000
C        0.00280000       0.03520000       3.53940000
H        0.92880000       1.80470000      -0.48050000
H       -0.84970000       1.82550000      -0.48730000
H        0.03290000       1.74660000       1.05360000
H        0.91420000       0.31890000      -2.71880000
H        0.01630000      -1.11410000      -3.23260000
H       -0.85180000       0.33960000      -2.72590000
H       -0.01430000      -3.03370000      -1.23000000
H        0.00310000       0.39420000       4.53870000
