17
Properties=species:S:1:pos:R:3 gdb_76038=T pbc="F F F"
C       -0.23790000       1.38340000      -0.07040000
C        0.05210000      -0.09240000       0.03870000
C        1.44280000      -0.66020000      -0.16400000
C        2.58540000       0.17960000      -0.34000000
C        3.56080000       0.88370000      -0.40740000
C        0.79920000      -0.63870000       1.24380000
O        1.28930000       0.24000000       2.19970000
C        0.37370000      -1.95940000       1.78610000
O       -0.11160000      -2.83970000       1.11610000
H        0.55080000       1.98030000       0.39040000
H       -0.32690000       1.68130000      -1.11980000
H       -1.18010000       1.62270000       0.43190000
H       -0.72600000      -0.76360000      -0.31380000
H        1.49220000      -1.64670000      -0.61520000
H        4.41650000       1.50340000      -0.51730000
H        2.20570000       0.45640000       1.98000000
H        0.54240000      -2.06290000       2.87890000
