19
Properties=species:S:1:pos:R:3 gdb_67970=T pbc="F F F"
O       -0.01730000       1.49450000       0.21750000
C        0.01470000       0.09810000       0.02520000
C        0.30940000      -0.36290000      -1.44390000
C       -1.05350000      -1.06940000      -1.44520000
O       -1.60870000      -1.79890000      -2.21600000
C       -1.41460000      -0.54510000      -0.04570000
C       -1.48280000      -1.62480000       1.04640000
C       -0.00550000      -2.01030000       1.27510000
C        0.75510000      -0.67680000       1.13170000
H        0.88940000       1.82000000       0.21490000
H        0.33510000       0.48300000      -2.13870000
H        1.17860000      -1.00330000      -1.62350000
H       -2.24920000       0.15990000      -0.04340000
H       -1.90900000      -1.19570000       1.95990000
H       -2.10860000      -2.47210000       0.75280000
H        0.16510000      -2.49070000       2.24190000
H        0.31980000      -2.71940000       0.50410000
H        1.82230000      -0.80920000       0.92450000
H        0.66180000      -0.09320000       2.05490000
