19
Properties=species:S:1:pos:R:3 gdb_63444=T pbc="F F F"
C       -0.06020000       1.52540000       0.00130000
C       -0.01280000       0.01060000      -0.02140000
C       -1.25950000      -0.64000000      -0.58680000
C        1.30510000      -0.65780000      -0.24750000
C        0.69650000      -0.70520000       1.16820000
C        1.31670000       0.09580000       2.19390000
C        1.83400000       0.75610000       3.05560000
C        0.17490000      -1.96590000       1.63390000
C       -0.25520000      -3.01640000       2.03110000
H        0.84040000       1.95640000       0.44210000
H       -0.16070000       1.90870000      -1.02050000
H       -0.92050000       1.88100000       0.57850000
H       -1.40010000      -0.32950000      -1.62850000
H       -1.20090000      -1.72950000      -0.55880000
H       -2.14860000      -0.33640000      -0.02390000
H        1.32740000      -1.60030000      -0.78290000
H        2.19040000      -0.04210000      -0.35970000
H        2.28880000       1.33380000       3.82160000
H       -0.63260000      -3.94190000       2.38930000
