16
Properties=species:S:1:pos:R:3 gdb_109208=T pbc="F F F"
O        0.11830000       1.16760000       0.49280000
C       -0.01900000      -0.17180000       0.10050000
C       -1.45510000      -0.54760000      -0.09000000
N       -2.43220000       0.22590000       0.15240000
C       -3.65170000      -0.51390000      -0.18080000
C       -3.12910000      -1.95640000      -0.49860000
O       -1.70540000      -1.79720000      -0.55490000
C       -3.51300000      -2.93700000       0.59680000
O       -2.75780000      -3.37150000       1.42160000
H       -0.77680000       1.50170000       0.64470000
H        0.51730000      -0.35600000      -0.84230000
H        0.41460000      -0.85790000       0.84530000
H       -4.35710000      -0.49940000       0.65670000
H       -4.15220000      -0.05610000      -1.04030000
H       -3.48460000      -2.33310000      -1.46290000
H       -4.59730000      -3.19660000       0.58890000
