18
Properties=species:S:1:pos:R:3 gdb_64714=T pbc="F F F"
C        0.01260000       1.59880000       0.17330000
C        0.01470000       0.08120000       0.04300000
C       -1.39800000      -0.49510000      -0.17540000
C       -1.99970000      -0.06490000      -1.43650000
N       -2.45630000       0.28010000      -2.44060000
C        1.06880000      -0.54850000      -0.95440000
C        1.69150000      -1.28570000       0.23560000
O        2.09660000      -0.28710000       1.18320000
C        0.73060000      -0.69450000       1.17890000
H        1.02020000       1.95130000       0.40430000
H       -0.31790000       2.07340000      -0.75610000
H       -0.65860000       1.92620000       0.97580000
H       -1.36630000      -1.59150000      -0.16520000
H       -2.05700000      -0.19000000       0.64690000
H        0.60940000      -1.20660000      -1.69580000
H        1.73410000       0.15570000      -1.45820000
H        2.21770000      -2.23230000       0.26240000
H        0.31420000      -1.06280000       2.11120000
