18
Properties=species:S:1:pos:R:3 gdb_112689=T pbc="F F F"
N        0.31170000       1.24820000       0.55840000
C       -0.00820000      -0.02750000      -0.05710000
C       -1.50310000      -0.33600000      -0.17230000
C       -1.55360000      -1.32050000      -1.34750000
C       -2.79520000      -1.24660000      -2.22200000
O       -2.74080000      -2.15420000      -3.29960000
O       -0.41780000      -0.97470000      -2.18740000
C        0.47380000      -0.20680000      -1.50670000
O        1.46190000       0.24550000      -2.00880000
H        1.31690000       1.39340000       0.49750000
H       -0.10160000       1.99940000       0.01030000
H        0.48320000      -0.81800000       0.52790000
H       -1.93650000      -0.74780000       0.74000000
H       -2.05070000       0.58130000      -0.42430000
H       -1.40620000      -2.35550000      -1.01570000
H       -3.67400000      -1.51200000      -1.62420000
H       -2.92260000      -0.20690000      -2.56540000
H       -1.93960000      -1.95080000      -3.79600000
