16
Properties=species:S:1:pos:R:3 gdb_34643=T pbc="F F F"
N        0.09950000      -1.09200000       0.21150000
C        0.01160000       0.05430000       0.09110000
C       -0.07630000       1.49540000      -0.04400000
N       -1.23240000       2.02390000      -0.04920000
C       -1.32810000       3.47770000      -0.10610000
C       -0.15720000       4.17840000      -0.81330000
C        1.17450000       3.54710000      -0.47720000
C        1.54640000       3.08630000       0.88180000
N        1.20270000       2.10220000      -0.18050000
H       -2.27290000       3.73120000      -0.59590000
H       -1.42580000       3.83340000       0.92830000
H       -0.29880000       4.10040000      -1.89750000
H       -0.15100000       5.24680000      -0.57290000
H        1.99340000       3.83490000      -1.13300000
H        2.58710000       3.06960000       1.18850000
H        0.83170000       3.20970000       1.69040000
