16
Properties=species:S:1:pos:R:3 gdb_36337=T pbc="F F F"
N        0.09110000      -1.17250000      -0.16180000
C        0.04740000      -0.02030000      -0.09890000
C       -0.00570000       1.44180000       0.00780000
N        1.32560000       2.00930000       0.08180000
C        2.12500000       1.79380000       1.30560000
C        2.67610000       3.24080000       1.13570000
C        1.43880000       3.47400000       0.21920000
C        2.81830000       4.06760000       2.31810000
N        2.91980000       4.72640000       3.26250000
H       -0.51040000       1.83780000      -0.88130000
H       -0.63660000       1.69930000       0.88040000
H        1.51680000       1.69870000       2.21750000
H        2.84080000       0.97090000       1.25430000
H        3.60360000       3.24780000       0.56040000
H        1.59740000       4.01840000      -0.71520000
H        0.60820000       3.93210000       0.77740000
