18
Properties=species:S:1:pos:R:3 gdb_117429=T pbc="F F F"
C        1.22800000       0.76740000      -0.45660000
N       -0.10530000       0.18640000      -0.30280000
C       -0.42810000      -0.79820000      -1.31070000
C        0.31650000      -2.12640000      -1.16920000
O        0.93200000      -2.46960000      -0.19280000
O        0.15150000      -2.88790000      -2.27540000
C        0.77930000      -4.18840000      -2.25340000
C        2.12750000      -4.15000000      -2.80150000
C        3.23640000      -4.13360000      -3.26210000
H        2.04600000       0.03060000      -0.46030000
H        1.26910000       1.33110000      -1.39560000
H        1.40630000       1.47270000       0.36000000
H       -0.16790000      -0.25510000       0.60920000
H       -1.50040000      -1.03420000      -1.27870000
H       -0.23710000      -0.39300000      -2.31000000
H        0.79490000      -4.55940000      -1.22510000
H        0.13300000      -4.82760000      -2.86070000
H        4.22090000      -4.11770000      -3.66050000
