16
Properties=species:S:1:pos:R:3 gdb_31942=T pbc="F F F"
O        0.12150000       1.23400000       0.55950000
C       -0.00110000      -0.02160000      -0.08490000
C       -1.43780000      -0.43370000      -0.04330000
C       -2.59150000       0.33390000      -0.14450000
C       -3.69010000      -0.54190000      -0.08810000
C       -3.19660000      -1.83460000       0.04520000
N       -1.81620000      -1.73510000       0.07210000
C       -3.86980000      -3.10980000       0.15080000
O       -5.07240000      -3.27270000       0.13780000
H        0.97830000       1.60510000       0.32810000
H        0.34100000       0.04100000      -1.13140000
H        0.61750000      -0.79430000       0.40410000
H       -2.60920000       1.40810000      -0.23650000
H       -4.73840000      -0.29150000      -0.13310000
H       -1.18920000      -2.51560000       0.18120000
H       -3.17530000      -3.98050000       0.24940000
