24
Properties=species:S:1:pos:R:3 gdb_113785=T pbc="F F F"
C        0.90740000      -1.81460000      -0.13840000
C       -0.14100000      -2.13810000       0.93450000
C       -1.44390000      -1.37680000       0.74270000
C       -2.54460000      -1.39410000       1.75220000
N       -1.89450000      -0.14530000       1.38870000
C       -1.25430000       0.68130000       2.38760000
C       -2.19100000       1.81490000       2.76770000
C       -0.33500000       0.17300000       3.48450000
C        0.21490000       0.98680000       2.32850000
H        1.18180000      -0.75540000      -0.13820000
H        1.82030000      -2.39830000       0.01520000
H        0.52610000      -2.05080000      -1.13780000
H       -0.38050000      -3.20830000       0.87390000
H        0.27660000      -1.98190000       1.93140000
H       -1.75620000      -1.39340000      -0.30390000
H       -3.58470000      -1.51610000       1.45570000
H       -2.29940000      -1.81990000       2.72590000
H       -3.12040000       1.42040000       3.19330000
H       -1.73260000       2.47440000       3.51080000
H       -2.45100000       2.40660000       1.88490000
H       -0.40940000       0.64770000       4.45760000
H       -0.08620000      -0.87910000       3.53450000
H        0.81900000       0.46650000       1.59630000
H        0.53280000       2.00740000       2.51540000
