21
Properties=species:S:1:pos:R:3 gdb_40708=T pbc="F F F"
C        0.15810000       1.52590000      -0.00500000
O        1.18310000       0.54500000      -0.16750000
C       -0.16240000       0.09250000       0.02190000
C       -0.46170000      -0.64430000       1.29340000
C       -1.96130000      -0.91740000       1.63280000
C       -1.56430000      -2.34860000       2.01820000
C       -1.78700000      -2.97760000       3.36300000
C       -2.42610000      -3.56760000       2.12370000
C       -0.20410000      -2.18380000       1.32800000
H        0.19030000       2.08500000       0.92970000
H       -0.06990000       2.11820000      -0.89040000
H       -0.60920000      -0.33870000      -0.87780000
H        0.04750000      -0.14700000       2.12360000
H       -2.41460000      -0.29150000       2.40620000
H       -2.59680000      -0.88320000       0.74000000
H       -0.96350000      -3.51810000       3.81970000
H       -2.42860000      -2.46230000       4.07130000
H       -3.49820000      -3.45090000       1.99760000
H       -2.03420000      -4.50650000       1.74460000
H       -0.18660000      -2.61730000       0.32150000
H        0.68300000      -2.52310000       1.86870000
