22
Properties=species:S:1:pos:R:3 gdb_22256=T pbc="F F F"
C        0.59170000      -1.49480000      -0.79420000
C        0.12370000      -0.24450000      -0.01660000
C        0.60430000       1.04570000      -0.69710000
C       -1.37560000      -0.33600000       0.21350000
N       -1.91090000      -0.93240000       1.21180000
O       -0.96840000      -1.44120000       2.12000000
C       -2.41220000       0.22180000      -0.75170000
C       -2.70930000       1.71150000      -0.53480000
O       -1.95410000      -0.03850000      -2.07940000
H        1.68090000      -1.47810000      -0.90870000
H        0.31900000      -2.40710000      -0.25720000
H        0.13760000      -1.52540000      -1.78760000
H        0.58020000      -0.29180000       0.97620000
H        0.17500000       1.15610000      -1.69480000
H        0.35490000       1.93300000      -0.10670000
H        1.69460000       1.01660000      -0.79570000
H       -1.53450000      -1.83300000       2.79310000
H       -3.33740000      -0.33630000      -0.55480000
H       -1.82960000       2.33230000      -0.71480000
H       -3.50340000       2.03630000      -1.21850000
H       -3.05990000       1.88120000       0.48720000
H       -2.59610000       0.33850000      -2.68910000
