17
Properties=species:S:1:pos:R:3 gdb_53482=T pbc="F F F"
C        0.01330000       1.50040000       0.07610000
C        0.01610000       0.04480000       0.06070000
C        0.02600000      -1.15870000       0.04030000
C        0.00940000      -2.61390000       0.02980000
C       -1.43680000      -3.20580000      -0.08750000
C       -2.07210000      -2.83690000      -1.35510000
C       -2.58130000      -2.53180000      -2.39860000
C       -1.40480000      -4.66020000       0.09270000
C       -1.34310000      -5.84810000       0.25810000
H        0.81880000       1.90580000      -0.54610000
H       -0.93280000       1.89740000      -0.30820000
H        0.14900000       1.89070000       1.09080000
H        0.60620000      -3.00560000      -0.80100000
H        0.45110000      -3.00990000       0.95120000
H       -2.02510000      -2.76870000       0.73090000
H       -3.03650000      -2.26270000      -3.31940000
H       -1.30550000      -6.90010000       0.39810000
