16
Properties=species:S:1:pos:R:3 gdb_28384=T pbc="F F F"
N        0.16670000       1.43920000       0.02630000
C       -0.02170000       0.03240000      -0.00680000
C       -1.18220000      -0.70130000      -0.03660000
C       -1.17250000      -2.10290000      -0.05790000
C        0.03040000      -2.85260000      -0.06130000
O        0.18980000      -4.09270000      -0.07160000
C        1.24000000      -2.01600000      -0.02860000
N        2.41340000      -2.69000000      -0.06760000
H        2.22390000      -3.68570000       0.04540000
H        3.25190000      -2.31050000       0.34030000
N        1.16340000      -0.68350000      -0.00310000
H       -0.17840000       1.89240000      -0.81400000
H       -0.30500000       1.86800000       0.81560000
H       -2.12590000      -0.16600000      -0.03830000
H       -2.10680000      -2.65300000      -0.06380000
H        2.00220000      -0.11550000       0.01220000
