17
Properties=species:S:1:pos:R:3 gdb_28460=T pbc="F F F"
C        0.02660000       1.48970000       0.03830000
C       -0.00860000      -0.01250000      -0.00960000
C       -0.17580000      -0.71850000      -1.18920000
N       -0.17390000      -2.06350000      -1.23270000
C       -0.02540000      -2.70280000      -0.08980000
N       -0.04750000      -4.09770000      -0.07040000
C        0.10040000      -1.98910000       1.13530000
N        0.25750000      -2.69870000       2.32220000
N        0.11920000      -0.67080000       1.16290000
H        0.98830000       1.84440000       0.42500000
H       -0.12570000       1.92210000      -0.95400000
H       -0.74880000       1.87530000       0.70840000
H       -0.30470000      -0.20340000      -2.13660000
H        0.00270000      -4.47980000      -1.00670000
H        0.65350000      -4.50380000       0.53800000
H       -0.33230000      -3.51920000       2.38780000
H        0.17250000      -2.09890000       3.13290000
