18
Properties=species:S:1:pos:R:3 gdb_128838=T pbc="F F F"
C       -0.01600000       1.38450000       0.03100000
O       -0.05400000      -0.02060000      -0.02970000
C        0.68560000      -0.54250000      -1.11020000
C        0.54300000      -2.06560000      -1.09060000
C        1.28180000      -2.71610000      -2.21520000
C        2.41040000      -3.50310000      -2.20060000
N        2.62990000      -3.79020000      -3.50560000
N        1.70300000      -3.22280000      -4.29760000
N        0.88860000      -2.57320000      -3.51850000
H        1.01120000       1.76130000       0.16300000
H       -0.43370000       1.84490000      -0.87830000
H       -0.61690000       1.69220000       0.89030000
H        0.31660000      -0.14700000      -2.06970000
H        1.74910000      -0.25830000      -1.02740000
H        0.90640000      -2.44530000      -0.13080000
H       -0.52250000      -2.31030000      -1.15390000
H        3.04120000      -3.86790000      -1.40770000
H        3.35650000      -4.35150000      -3.92010000
