21
Properties=species:S:1:pos:R:3 gdb_107067=T pbc="F F F"
O        0.11130000       1.34240000       0.26960000
C        0.00940000      -0.01160000      -0.15380000
C       -1.40600000      -0.52680000      -0.11180000
C       -1.93620000      -1.11390000       1.17960000
C       -1.72620000      -2.00330000      -0.02150000
C       -2.93300000      -2.28640000      -0.89490000
O       -3.78540000      -3.23680000      -0.26990000
C       -3.59340000      -0.90330000      -1.11640000
C       -2.44140000       0.11820000      -1.03390000
H       -0.27690000       1.39320000       1.14980000
H        0.38990000      -0.02090000      -1.18220000
H        0.66350000      -0.66770000       0.44340000
H       -1.22830000      -1.23400000       1.99400000
H       -2.94630000      -0.89190000       1.50540000
H       -0.94110000      -2.75030000       0.02220000
H       -2.57340000      -2.68430000      -1.85800000
H       -4.50690000      -3.43130000      -0.87650000
H       -4.14170000      -0.84660000      -2.06130000
H       -4.32050000      -0.74510000      -0.31330000
H       -2.77060000       1.10260000      -0.68720000
H       -1.98580000       0.26740000      -2.02080000
