14
Properties=species:S:1:pos:R:3 gdb_791=T pbc="F F F"
C       -0.03560000       1.44400000       0.04400000
C        0.01900000      -0.00850000       0.01920000
C        0.08460000      -1.21310000      -0.00220000
C        0.07850000      -2.63610000      -0.02450000
C       -1.24030000      -3.37110000       0.01260000
N        1.22430000      -3.22380000      -0.07660000
O        1.06870000      -4.61270000      -0.09270000
H        0.97000000       1.87740000       0.02440000
H       -0.58490000       1.83550000      -0.81970000
H       -0.53820000       1.80710000       0.94760000
H       -1.34130000      -4.00750000      -0.87220000
H       -1.27700000      -4.03390000       0.88280000
H       -2.07450000      -2.67120000       0.05380000
H        1.98160000      -4.91740000      -0.13170000
