12
Properties=species:S:1:pos:R:3 gdb_4451=T pbc="F F F"
N        0.00430000       1.42250000       0.01130000
C       -0.07510000       0.04680000      -0.00760000
C       -1.10510000      -0.79750000      -0.01080000
O       -2.42430000      -0.59950000      -0.03520000
O       -0.66050000      -2.10170000      -0.03990000
C        0.72880000      -2.04630000      -0.05400000
N        1.52220000      -3.02020000      -0.06500000
O        1.10610000      -0.75360000      -0.05470000
H        0.50120000       1.78370000       0.81880000
H        0.41580000       1.81410000      -0.82980000
H       -2.86060000      -1.39140000       0.30250000
H        1.01350000      -3.90000000      -0.06780000
