16
Properties=species:S:1:pos:R:3 gdb_45725=T pbc="F F F"
O       -0.02330000      -0.11290000       0.17280000
C       -0.02600000       1.07690000      -0.02210000
C       -1.32010000       1.86740000      -0.18680000
C       -1.16760000       3.16490000      -0.93150000
C       -0.02010000       3.61610000      -1.43060000
C        1.29480000       2.87380000      -1.27130000
C        1.25410000       1.89950000      -0.06700000
C        1.64290000       2.17810000      -2.52000000
N        1.91230000       1.63890000      -3.50610000
H       -2.05530000       1.21470000      -0.67130000
H       -1.72160000       2.05520000       0.82090000
H       -2.07400000       3.74790000      -1.07400000
H        0.01380000       4.54340000      -1.99300000
H        2.09630000       3.60140000      -1.09330000
H        1.28100000       2.51240000       0.84320000
H        2.11260000       1.22640000      -0.05690000
