18
Properties=species:S:1:pos:R:3 gdb_45620=T pbc="F F F"
O        0.00540000       0.00280000      -0.15510000
C       -0.04660000       1.20730000      -0.06810000
C       -1.26090000       2.10710000       0.21310000
C       -0.68140000       3.49530000       0.19570000
C        0.63590000       3.42430000      -0.05120000
N        1.02220000       2.07670000      -0.20880000
C        1.61540000       4.51580000      -0.16130000
C        3.04240000       4.35700000       0.33090000
C        2.77120000       4.45170000      -1.14290000
H       -2.02650000       1.93080000      -0.55220000
H       -1.70940000       1.82000000       1.17180000
H       -1.23640000       4.40700000       0.35630000
H        1.95250000       1.74510000      -0.40120000
H        1.16760000       5.49270000      -0.01610000
H        3.49480000       5.20550000       0.83110000
H        3.33180000       3.39690000       0.74430000
H        2.87330000       3.55710000      -1.74760000
H        3.03610000       5.36570000      -1.66190000
