17
Properties=species:S:1:pos:R:3 gdb_49998=T pbc="F F F"
O       -0.33930000       0.61640000       0.85720000
C        0.25810000       0.91050000      -0.14800000
C        1.43720000       1.81480000      -0.18230000
N        2.29970000       1.68170000      -1.38530000
C        1.53550000       2.89100000      -1.22560000
C        0.57780000       3.42380000      -2.29810000
N        1.18580000       4.80300000      -2.19370000
C        0.95840000       5.23490000      -0.80510000
C        2.06870000       4.29230000      -1.06380000
H       -0.03970000       0.52860000      -1.15000000
H        1.88890000       2.02500000       0.78430000
H        3.27630000       1.81680000      -1.13340000
H        0.77740000       2.99130000      -3.28030000
H       -0.49680000       3.40230000      -2.09170000
H        1.21400000       6.27680000      -0.63810000
H        0.07090000       4.89070000      -0.27790000
H        3.11710000       4.56360000      -0.97850000
