15
Properties=species:S:1:pos:R:3 gdb_127362=T pbc="F F F"
C        0.07890000       1.44350000       0.03110000
N        0.02700000      -0.00250000       0.00350000
C       -0.09240000      -0.83930000      -1.07360000
N       -0.10990000      -2.09350000      -0.77070000
N        0.00720000      -2.09600000       0.62050000
C        0.02750000      -3.27970000       1.34280000
O       -0.05010000      -4.37990000       0.86900000
C        0.09690000      -0.78690000       1.15130000
N        0.21240000      -0.30130000       2.32210000
H        1.01750000       1.78030000       0.47950000
H        0.00520000       1.81900000      -0.99080000
H       -0.74590000       1.84040000       0.62900000
H       -0.16510000      -0.46980000      -2.08580000
H        0.12560000      -3.07630000       2.42420000
H        0.24920000      -1.00840000       3.04890000
