19
Properties=species:S:1:pos:R:3 gdb_96729=T pbc="F F F"
C       -0.56170000       2.01400000      -0.67530000
N       -0.72360000       0.59460000      -0.42990000
C        0.17010000      -0.25060000      -0.77630000
N       -0.21490000      -1.57420000      -0.43110000
C        0.32260000      -2.82360000      -0.55390000
O        1.38290000      -3.14410000      -1.04420000
C        1.44620000       0.08990000      -1.45050000
C        2.81000000      -0.54310000      -1.21630000
C        2.14780000      -0.69730000      -2.54760000
H       -0.47120000       2.25240000      -1.74420000
H       -1.44480000       2.53520000      -0.29650000
H        0.31490000       2.43600000      -0.16430000
H       -1.12270000      -1.53660000       0.01620000
H       -0.37300000      -3.56900000      -0.12150000
H        1.50160000       1.15970000      -1.60190000
H        3.63710000       0.15000000      -1.10900000
H        2.86070000      -1.43130000      -0.60280000
H        1.77560000      -1.68400000      -2.78380000
H        2.50230000      -0.11440000      -3.39050000
