18
Properties=species:S:1:pos:R:3 gdb_26097=T pbc="F F F"
C        0.17200000       1.59010000       0.14880000
C        0.00530000       0.07890000      -0.03980000
C        0.53470000      -0.70350000       1.17580000
O       -1.36950000      -0.25310000      -0.27060000
C        0.72640000      -0.36370000      -1.28560000
N        1.48110000       0.33090000      -2.07690000
C        1.90450000      -0.57430000      -3.04240000
C        1.37050000      -1.78670000      -2.77140000
O        0.61370000      -1.66890000      -1.64190000
H        1.22340000       1.86470000       0.26000000
H       -0.23370000       2.12490000      -0.71150000
H       -0.36660000       1.90410000       1.04980000
H       -0.00920000      -0.40070000       2.07790000
H        0.39330000      -1.77590000       1.02520000
H        1.59790000      -0.50610000       1.34260000
H       -1.85570000      -0.02500000       0.52930000
H        2.55370000      -0.28170000      -3.85190000
H        1.40720000      -2.76040000      -3.22840000
