16
Properties=species:S:1:pos:R:3 gdb_49722=T pbc="F F F"
O       -0.44010000       0.44660000      -0.58650000
C        0.28590000       0.83850000       0.29170000
C        1.34200000       1.89780000       0.12490000
C        1.40680000       2.81290000      -1.11650000
C        0.10030000       3.32010000      -1.79280000
C        0.23870000       4.62570000      -0.95280000
N        1.40580000       4.02590000      -0.21540000
C        1.09520000       3.23250000       0.90950000
O        0.68640000       3.51160000       1.99680000
H        0.21600000       0.43870000       1.32600000
H        2.31060000       1.45810000       0.39320000
H        2.27520000       2.69370000      -1.76560000
H        0.16770000       3.44740000      -2.87400000
H       -0.77830000       2.71880000      -1.56200000
H        0.54560000       5.50570000      -1.52200000
H       -0.58990000       4.89390000      -0.29350000
