21
Properties=species:S:1:pos:R:3 gdb_113859=T pbc="F F F"
C        0.15970000       1.03920000      -0.30190000
O       -0.39050000      -0.02310000       0.45260000
C        0.52400000      -0.59260000       1.33500000
C        0.19310000      -1.95650000       1.84330000
C        1.36860000      -1.77360000       0.89400000
C        1.28060000      -2.31290000      -0.50560000
C        2.42410000      -1.98250000      -1.49630000
O        2.65850000      -3.37780000      -1.76630000
C        1.71620000      -3.77930000      -0.75110000
H        0.99920000       0.70610000      -0.92870000
H       -0.63600000       1.42320000      -0.94430000
H        0.51550000       1.85220000       0.34880000
H        0.97950000       0.12100000       2.02360000
H        0.38270000      -2.18860000       2.88500000
H       -0.70130000      -2.41200000       1.43130000
H        2.35760000      -1.84070000       1.34290000
H        0.29570000      -2.09600000      -0.92360000
H        2.14980000      -1.42830000      -2.40210000
H        3.29880000      -1.49960000      -1.03680000
H        2.21340000      -4.25500000       0.10580000
H        0.95430000      -4.46290000      -1.14400000
