18
Properties=species:S:1:pos:R:3 gdb_106940=T pbc="F F F"
O       -0.00390000       1.44560000       0.13780000
C        0.01180000       0.03840000      -0.04220000
C       -1.38150000      -0.54270000       0.03840000
C       -1.93380000      -1.17400000       1.27770000
C       -1.65690000      -2.02640000       0.03250000
C       -2.80620000      -2.24340000      -0.89570000
O       -3.19750000      -3.29330000      -1.33700000
C       -3.36510000      -0.85920000      -1.26460000
N       -2.33700000       0.10760000      -0.85780000
H       -0.44730000       1.80820000      -0.63740000
H        0.45940000      -0.22840000      -1.01120000
H        0.64480000      -0.37400000       0.74970000
H       -1.26390000      -1.35130000       2.11240000
H       -2.96460000      -0.98370000       1.55980000
H       -0.88340000      -2.78260000       0.07860000
H       -3.55960000      -0.82390000      -2.34170000
H       -4.33130000      -0.72140000      -0.75770000
H       -2.74790000       0.91260000      -0.39910000
