15
Properties=species:S:1:pos:R:3 gdb_133043=T pbc="F F F"
C        0.03180000       1.44820000      -0.06670000
N       -0.01610000       0.01610000       0.15680000
C       -1.20740000      -0.68170000       0.07400000
C       -2.47230000      -0.07720000       0.08820000
N       -3.60660000      -0.78160000       0.05620000
C       -3.47060000      -2.08920000       0.00110000
F       -4.59270000      -2.79150000      -0.03060000
N       -2.35160000      -2.79340000      -0.03200000
C       -1.22940000      -2.08470000       0.00570000
H        1.07270000       1.77480000      -0.02780000
H       -0.39430000       1.75330000      -1.03510000
H       -0.51000000       1.97870000       0.72400000
H        0.78750000      -0.49200000      -0.17860000
H       -2.58110000       1.00220000       0.12820000
H       -0.29630000      -2.64660000      -0.01910000
