22
Properties=species:S:1:pos:R:3 gdb_101577=T pbc="F F F"
C        0.03040000       1.58880000       0.15760000
C        0.05690000       0.06440000       0.02980000
C        0.76240000      -0.64890000       1.19420000
C        0.62290000      -2.17420000       1.10010000
N        2.16420000      -0.25090000       1.26480000
C        2.78270000       0.06370000       2.43480000
O        2.24960000       0.17480000       3.51740000
O        4.11160000       0.25580000       2.21410000
C        4.85920000       0.61810000       3.37580000
H        1.04320000       1.99760000       0.21580000
H       -0.47100000       2.04670000      -0.70040000
H       -0.50340000       1.89860000       1.06240000
H       -0.96740000      -0.32190000      -0.03230000
H        0.54440000      -0.22530000      -0.91240000
H        0.32600000      -0.31210000       2.13940000
H       -0.43130000      -2.46890000       1.10090000
H        1.07650000      -2.55470000       0.17720000
H        1.11530000      -2.65860000       1.94770000
H        2.75670000      -0.40020000       0.46290000
H        4.79330000      -0.15900000       4.14200000
H        5.89070000       0.73140000       3.03980000
H        4.49350000       1.55710000       3.79960000
