21
Properties=species:S:1:pos:R:3 gdb_126300=T pbc="F F F"
C       -0.06590000       1.59320000      -0.33130000
C       -0.06010000       0.14720000       0.19800000
C       -1.41340000      -0.49360000       0.19520000
C       -2.34940000      -0.68360000       1.19270000
C       -3.45130000      -1.32010000       0.56810000
C       -4.75400000      -1.74230000       1.17960000
C       -5.66660000      -0.55690000       1.53610000
N       -3.21710000      -1.51320000      -0.72870000
N       -1.98290000      -1.00190000      -0.92920000
H        0.94100000       2.02090000      -0.30420000
H       -0.42360000       1.63580000      -1.36500000
H       -0.72420000       2.22410000       0.27270000
H        0.63720000      -0.45640000      -0.39730000
H        0.32370000       0.13460000       1.22280000
H       -2.24510000      -0.40680000       2.23040000
H       -5.26340000      -2.40230000       0.47080000
H       -4.55980000      -2.33270000       2.08360000
H       -6.60270000      -0.90500000       1.98440000
H       -5.18120000       0.11660000       2.24980000
H       -5.91180000       0.02570000       0.64280000
H       -1.57900000      -1.05580000      -1.84900000
