21
Properties=species:S:1:pos:R:3 gdb_78021=T pbc="F F F"
C       -0.02830000       1.49470000      -0.06230000
C       -0.02640000      -0.01420000       0.00520000
C       -1.31510000      -0.74500000      -0.36700000
C       -1.26180000      -2.12420000       0.32630000
C       -0.19850000      -2.01740000       1.45440000
O        0.68760000      -3.15130000       1.49710000
C        0.62550000      -0.78280000       1.15060000
C        1.26640000      -0.76160000      -0.21590000
O        1.32410000      -1.91480000      -1.00410000
H        0.93480000       1.91140000       0.24920000
H       -0.22310000       1.84220000      -1.08380000
H       -0.80190000       1.92190000       0.58720000
H       -2.16490000      -0.15750000       0.00030000
H       -1.43720000      -0.84000000      -1.45120000
H       -2.23810000      -2.42480000       0.71870000
H       -0.93460000      -2.88960000      -0.37970000
H       -0.68160000      -1.90890000       2.43540000
H        0.15580000      -3.94120000       1.64080000
H        1.12570000      -0.28440000       1.97410000
H        2.15230000      -0.13260000      -0.30770000
H        1.45230000      -2.65450000      -0.39410000
