18
Properties=species:S:1:pos:R:3 gdb_75751=T pbc="F F F"
C        0.09430000       1.52940000       0.09110000
C       -0.04570000       0.04600000       0.04570000
C       -1.12890000      -0.73720000      -0.07700000
C       -2.56590000      -0.35910000      -0.21460000
C       -0.68230000      -2.17660000       0.02310000
O       -1.13000000      -2.99740000      -1.03550000
C        0.85410000      -2.07180000       0.02630000
O        1.62980000      -2.98950000      -0.12880000
N        1.13680000      -0.73870000       0.18020000
H        0.76020000       1.88770000      -0.70430000
H       -0.87230000       2.01930000      -0.03260000
H        0.52470000       1.85710000       1.04530000
H       -2.70280000       0.72130000      -0.30780000
H       -3.00240000      -0.83460000      -1.10040000
H       -3.15580000      -0.69800000       0.64730000
H       -0.99350000      -2.59790000       0.99810000
H       -0.47090000      -3.70030000      -1.11990000
H        2.06850000      -0.37360000       0.05330000
