20
Properties=species:S:1:pos:R:3 gdb_89285=T pbc="F F F"
C       -0.18140000       1.57020000       0.01120000
C        0.04950000       0.06540000       0.01260000
C        1.16230000      -0.53260000      -0.90560000
C        1.78730000      -1.27100000       0.32020000
C        2.06100000      -2.75360000       0.23450000
N        2.80310000      -0.47130000       1.02520000
C        1.90410000       0.21710000       1.82030000
O        2.04330000       1.12870000       2.59260000
C        0.72280000      -0.59770000       1.26050000
H        0.73920000       2.11980000       0.22930000
H       -0.55240000       1.90160000      -0.96490000
H       -0.92000000       1.85690000       0.76690000
H       -0.89730000      -0.44730000      -0.18240000
H        0.78410000      -1.19770000      -1.68590000
H        1.83160000       0.19850000      -1.36740000
H        2.88570000      -2.96050000      -0.45820000
H        2.33210000      -3.15740000       1.21450000
H        1.18060000      -3.28990000      -0.13330000
H        3.71670000      -0.16910000       0.71000000
H        0.09770000      -1.13770000       1.97040000
