21
Properties=species:S:1:pos:R:3 gdb_104236=T pbc="F F F"
C        0.01690000       1.48250000       0.16750000
N       -0.05490000       0.03400000      -0.03050000
C       -1.40040000      -0.53310000      -0.04460000
C       -2.33090000      -0.03020000      -1.15290000
C       -1.37050000      -2.07180000       0.15530000
O       -1.98390000      -1.93290000       1.47180000
C       -2.02920000      -0.55660000       1.34640000
N       -2.46050000       0.32040000       2.12720000
C       -3.00510000      -0.08230000       3.41800000
H        1.06730000       1.77090000       0.26920000
H       -0.42310000       2.08260000      -0.64530000
H       -0.50300000       1.73840000       1.09360000
H        0.41130000      -0.21580000      -0.89820000
H       -1.88590000      -0.21370000      -2.13790000
H       -3.30160000      -0.53430000      -1.11690000
H       -2.51070000       1.04270000      -1.04870000
H       -2.00620000      -2.66200000      -0.51000000
H       -0.36970000      -2.50140000       0.23320000
H       -4.02920000       0.29630000       3.50720000
H       -3.01430000      -1.16590000       3.58190000
H       -2.41970000       0.38800000       4.21580000
