18
Properties=species:S:1:pos:R:3 gdb_41526=T pbc="F F F"
C       -0.00210000       1.53400000       0.02330000
O        1.37750000       1.89150000      -0.08420000
C        2.13010000       0.75140000      -0.10270000
N        3.39230000       0.79020000      -0.18170000
C        4.06650000      -0.50970000      -0.18470000
C        3.29750000      -1.65360000       0.50040000
C        1.86430000      -1.77510000      -0.04900000
C        1.23320000      -0.41730000      -0.02020000
C       -0.02010000       0.03150000       0.06040000
H       -0.41970000       1.98950000       0.93200000
H       -0.54850000       1.94740000      -0.83580000
H        4.29150000      -0.78370000      -1.22700000
H        5.03820000      -0.38120000       0.30470000
H        3.83910000      -2.59580000       0.36870000
H        3.25270000      -1.45400000       1.57820000
H        1.90240000      -2.13350000      -1.08740000
H        1.27320000      -2.50480000       0.51340000
H       -0.93160000      -0.54770000       0.13710000
