20
Properties=species:S:1:pos:R:3 gdb_81244=T pbc="F F F"
C        0.01340000       1.61230000      -0.06280000
C        0.13540000       0.10040000      -0.06710000
N        1.43900000      -0.53840000      -0.58530000
C        2.04620000      -0.19220000       0.80160000
C        0.63930000      -0.75040000       1.14100000
O       -0.12100000      -1.21960000       2.20860000
C       -0.79150000      -2.40320000       1.68450000
C       -0.35800000      -2.63890000       0.17910000
C        0.94980000      -1.84620000       0.16920000
H        0.09790000       1.99560000      -1.08550000
H       -0.97520000       1.89220000       0.31610000
H        0.75610000       2.12490000       0.55110000
H       -0.72410000      -0.31190000      -0.59970000
H        2.90850000      -0.80910000       1.06270000
H        2.26220000       0.86650000       0.92930000
H       -0.50580000      -3.25310000       2.31370000
H       -1.87250000      -2.25850000       1.77210000
H       -0.21360000      -3.70190000      -0.02380000
H       -1.12480000      -2.27430000      -0.50510000
H        1.81210000      -2.47900000       0.39070000
