19
Properties=species:S:1:pos:R:3 gdb_2943=T pbc="F F F"
C       -0.10770000       1.54930000      -0.01830000
C       -0.00500000       0.02200000      -0.00770000
C        0.69870000      -0.54010000      -1.23900000
C        0.81900000      -2.06950000      -1.28250000
C        0.84520000      -2.34890000      -2.79080000
C       -0.12100000      -1.28040000      -3.31810000
O       -0.03430000      -0.17730000      -2.41860000
H        0.88570000       2.01190000      -0.02890000
H       -0.64440000       1.88910000      -0.90780000
H       -0.63730000       1.91710000       0.86580000
H        0.54120000      -0.31310000       0.88390000
H       -1.00740000      -0.42100000       0.04770000
H        1.70500000      -0.09140000      -1.30830000
H        1.70250000      -2.43570000      -0.75390000
H       -0.06500000      -2.52710000      -0.82210000
H        1.85160000      -2.18540000      -3.19100000
H        0.53870000      -3.36400000      -3.05520000
H        0.12890000      -0.93770000      -4.32890000
H       -1.15450000      -1.65820000      -3.33820000
