20
Properties=species:S:1:pos:R:3 gdb_80700=T pbc="F F F"
C        0.15940000       1.63060000       0.28630000
C        0.12620000       0.12310000       0.16840000
C        1.29770000      -0.74830000      -0.24020000
C        2.61230000      -0.25330000       0.38220000
N        1.96950000      -0.32950000       1.70280000
C        2.24910000       0.38770000       2.81860000
O        3.26270000       1.03540000       2.98670000
C        0.70580000      -0.84850000       1.17060000
C       -0.04340000      -1.94130000       1.87370000
H        1.07630000       1.98970000       0.76000000
H        0.08900000       2.09910000      -0.70110000
H       -0.68320000       1.99080000       0.88630000
H       -0.80340000      -0.26170000      -0.24930000
H        1.23610000      -1.46880000      -1.04480000
H        3.43840000      -0.96380000       0.28530000
H        2.96380000       0.74650000       0.11000000
H        1.45500000       0.28620000       3.58680000
H       -0.53610000      -1.57280000       2.78070000
H       -0.82160000      -2.34580000       1.21990000
H        0.62770000      -2.75730000       2.16030000
