13
Properties=species:S:1:pos:R:3 gdb_129249=T pbc="F F F"
N        0.01080000       1.33500000       0.01040000
C       -0.04010000       0.07570000       0.00390000
O        1.08080000      -0.75890000      -0.00710000
C        0.72560000      -2.15560000      -0.01260000
C       -0.76290000      -2.08590000      -0.00370000
C       -1.19930000      -0.80710000       0.00570000
C       -2.61150000      -0.94970000       0.01300000
N       -2.96390000      -2.21420000       0.00820000
O       -1.75170000      -2.96260000      -0.00280000
H        0.97790000       1.66100000       0.00660000
H        1.13880000      -2.63370000      -0.90820000
H        1.14900000      -2.64340000       0.87290000
H       -3.38680000      -0.19740000       0.02150000
