21
Properties=species:S:1:pos:R:3 gdb_113701=T pbc="F F F"
C        1.72850000       0.76180000       0.82660000
C        2.02490000      -0.74350000       0.75200000
C        3.37570000      -1.07960000       1.39150000
O        1.05640000      -1.46430000       1.51470000
C        2.06780000      -1.16270000      -0.72140000
O        2.36600000      -2.51910000      -1.04760000
C        1.10210000      -1.98340000      -1.47780000
C       -0.13010000      -2.68730000      -0.95770000
O       -0.44590000      -3.80130000      -1.78140000
H        2.49740000       1.35160000       0.31890000
H        0.76580000       0.99600000       0.35520000
H        1.68660000       1.07730000       1.87270000
H        3.38420000      -0.75960000       2.43670000
H        3.54010000      -2.15850000       1.35020000
H        4.19410000      -0.58220000       0.86290000
H        0.19060000      -1.08230000       1.33690000
H        2.64140000      -0.44950000      -1.32160000
H        1.05190000      -1.80420000      -2.55500000
H        0.02140000      -2.97830000       0.08530000
H       -0.99750000      -2.01860000      -1.01850000
H        0.27750000      -4.43120000      -1.69170000
