22
Properties=species:S:1:pos:R:3 gdb_101374=T pbc="F F F"
C        0.84160000       1.26170000       0.81440000
O        0.76350000      -0.11640000       0.54220000
C        0.35330000      -0.44000000      -0.78450000
C        1.48950000      -0.25760000      -1.79480000
C       -0.13390000      -1.88050000      -0.72710000
C       -1.42310000      -2.19680000       0.11520000
C       -2.06230000      -2.76850000      -1.15440000
N       -2.09600000      -1.65680000      -2.13720000
C       -0.85240000      -2.45200000      -1.96030000
H        1.63590000       1.76530000       0.24300000
H       -0.10980000       1.77420000       0.60080000
H        1.06600000       1.36840000       1.87920000
H       -0.49410000       0.20110000      -1.07010000
H        1.15320000      -0.52920000      -2.80050000
H        1.83210000       0.78050000      -1.83370000
H        2.34360000      -0.88940000      -1.52880000
H        0.69220000      -2.52810000      -0.41760000
H       -1.24130000      -2.94380000       0.88990000
H       -1.93770000      -1.33680000       0.54970000
H       -2.75430000      -3.59730000      -1.23990000
H       -2.55410000      -2.01390000      -2.97550000
H       -0.41330000      -2.97920000      -2.79880000
