15
Properties=species:S:1:pos:R:3 gdb_9637=T pbc="F F F"
C        0.07760000       1.50920000      -0.20120000
C       -0.02030000       0.03670000       0.13850000
O        1.19190000      -0.72690000       0.13220000
C        0.49810000      -0.58670000       1.38070000
C        1.22530000       0.15310000       2.47810000
O        2.20170000      -0.68010000       3.07460000
C       -1.14390000      -0.63880000      -0.50050000
N       -2.05120000      -1.14430000      -1.00720000
H        0.94720000       1.96130000       0.27550000
H        0.17280000       1.63270000      -1.28360000
H       -0.82450000       2.03590000       0.12320000
H        0.01310000      -1.50540000       1.71240000
H        1.66520000       1.08300000       2.09600000
H        0.51740000       0.41390000       3.27220000
H        2.84020000      -0.91260000       2.39100000
