18
Properties=species:S:1:pos:R:3 gdb_68274=T pbc="F F F"
N       -0.12080000       1.38590000       0.11060000
C        0.03110000      -0.02590000       0.00320000
C        0.69150000      -0.94650000      -1.08610000
C        0.09600000      -1.90610000      -0.01970000
C        0.67850000      -0.95800000       1.06740000
C       -1.19460000      -1.01150000      -0.00550000
N       -2.01710000      -0.99710000       1.18990000
C       -2.01200000      -1.01910000      -1.22810000
N       -2.71810000      -1.02220000      -2.14540000
H        0.74880000       1.82670000       0.39200000
H       -0.40070000       1.79550000      -0.77580000
H        0.24030000      -0.95350000      -2.08040000
H        1.78180000      -0.91570000      -1.13700000
H        0.11080000      -2.99370000      -0.03150000
H        1.76920000      -0.92090000       1.11960000
H        0.20940000      -0.98500000       2.04770000
H       -2.40450000      -0.06610000       1.31840000
H       -2.79680000      -1.64050000       1.10250000
