19
Properties=species:S:1:pos:R:3 gdb_80176=T pbc="F F F"
C       -0.34450000       1.45860000       0.00680000
C       -0.01030000      -0.01780000       0.07500000
C        1.31870000      -0.62900000      -0.31340000
C        2.53850000       0.27520000      -0.42180000
C        2.60190000       0.97930000       0.92810000
O        3.12340000       2.03500000       1.19160000
C        1.79220000       0.17970000       1.96240000
O        1.19350000       1.03420000       2.90610000
C        0.84280000      -0.66380000       1.14170000
H        0.48290000       2.10760000       0.29940000
H       -0.64100000       1.73810000      -1.01030000
H       -1.17890000       1.68800000       0.67650000
H       -0.85240000      -0.64540000      -0.20830000
H        1.31020000      -1.53370000      -0.91010000
H        3.45280000      -0.31750000      -0.55660000
H        2.51020000       1.00970000      -1.23200000
H        2.50990000      -0.50280000       2.45820000
H        1.76470000       1.81590000       2.94630000
H        0.49380000      -1.59080000       1.58130000
