17
Properties=species:S:1:pos:R:3 gdb_76285=T pbc="F F F"
C       -0.01480000       1.62700000       0.04670000
C        0.05600000       0.10080000      -0.03830000
N        0.85570000      -0.41750000      -1.13670000
C        0.52060000      -0.25820000      -2.53320000
C        1.83870000      -1.27540000      -0.71520000
O        2.62590000      -1.90190000      -1.38470000
N        1.76150000      -1.29110000       0.69230000
C        0.75250000      -0.50270000       1.19280000
O        0.47380000      -0.31050000       2.35010000
H        0.98920000       2.06120000       0.04960000
H       -0.57360000       2.04360000      -0.79550000
H       -0.52000000       1.90740000       0.97410000
H       -0.96590000      -0.30720000      -0.07800000
H        0.56000000       0.79370000      -2.83550000
H        1.25230000      -0.82180000      -3.11390000
H       -0.48350000      -0.64580000      -2.74950000
H        2.40820000      -1.81930000       1.25610000
