16
Properties=species:S:1:pos:R:3 gdb_16034=T pbc="F F F"
C       -0.00230000       1.54150000       0.01630000
C        0.08390000       0.03280000       0.05430000
C        1.33380000      -0.74480000      -0.18700000
N        2.50120000       0.00320000       0.30140000
C        1.99160000      -0.10090000       1.70800000
C        0.68660000      -0.75500000       1.22010000
C       -0.02840000      -1.76820000       1.91430000
N       -0.60410000      -2.59820000       2.48220000
H        0.96270000       1.99750000       0.24550000
H       -0.29460000       1.87250000      -0.98560000
H       -0.74950000       1.91260000       0.72440000
H       -0.79340000      -0.48460000      -0.32740000
H        1.41940000      -1.54800000      -0.90940000
H        3.35340000      -0.53400000       0.19060000
H        2.57570000      -0.79110000       2.32140000
H        1.90140000       0.85950000       2.22500000
