20
Properties=species:S:1:pos:R:3 gdb_78941=T pbc="F F F"
C       -0.06450000       1.59320000       0.05750000
C        0.02930000       0.07590000       0.05330000
C        1.07840000      -0.64480000      -0.81630000
C        1.14700000      -1.83160000       0.18850000
C        2.63970000      -1.49880000       0.42310000
N        2.45700000      -0.21040000      -0.32300000
C        2.21750000      -0.28520000       1.16450000
C        2.97710000       0.62410000       2.07680000
C        0.72440000      -0.69760000       1.20730000
H        0.92590000       2.04720000       0.15360000
H       -0.50900000       1.96170000      -0.87360000
H       -0.68690000       1.95110000       0.88510000
H       -0.95020000      -0.38270000      -0.13540000
H        1.01920000      -0.72140000      -1.90170000
H        0.65360000      -2.79540000       0.09710000
H        3.56210000      -2.06790000       0.40590000
H        4.01080000       0.72680000       1.73410000
H        2.53050000       1.62410000       2.10500000
H        2.99090000       0.23210000       3.09980000
H        0.25610000      -0.88610000       2.17260000
