14
Properties=species:S:1:pos:R:3 gdb_132543=T pbc="F F F"
C       -0.04040000       1.49370000       0.01740000
C        0.01290000      -0.00690000      -0.01410000
C       -0.08850000      -0.74330000      -1.18460000
N       -0.03920000      -2.08630000      -1.19670000
C        0.11120000      -2.69900000      -0.04340000
O        0.16790000      -4.04070000       0.01120000
C        0.21430000      -1.94760000       1.14710000
F        0.36540000      -2.59130000       2.29660000
N        0.16730000      -0.65100000       1.16480000
H        0.87800000       1.90380000       0.44980000
H       -0.16640000       1.90670000      -0.98630000
H       -0.87100000       1.83770000       0.64210000
H       -0.21310000      -0.25430000      -2.14570000
H        0.07910000      -4.35370000      -0.90040000
