15
Properties=species:S:1:pos:R:3 gdb_132147=T pbc="F F F"
C       -0.02620000       1.50790000       0.01260000
C       -0.00430000       0.00960000      -0.02290000
C       -0.03930000      -0.69380000      -1.17620000
N       -0.01810000      -2.07410000      -1.18680000
C        0.03920000      -2.75980000      -0.01540000
F        0.05300000      -4.07630000      -0.18260000
C        0.07760000      -2.15370000       1.18760000
C        0.05850000      -0.69570000       1.27710000
O        0.09130000      -0.08510000       2.34140000
H        0.86290000       1.88950000       0.52520000
H       -0.07250000       1.94060000      -0.99050000
H       -0.88350000       1.86230000       0.59420000
H       -0.08540000      -0.23130000      -2.15460000
H       -0.04480000      -2.59260000      -2.04930000
H        0.12290000      -2.74200000       2.09380000
