21
Properties=species:S:1:pos:R:3 gdb_84504=T pbc="F F F"
C       -0.19980000       1.61690000      -0.11090000
C       -0.04480000       0.08850000      -0.00430000
C        0.64040000      -0.53830000      -1.23500000
C        1.83070000      -1.10880000      -0.98850000
C        2.15480000      -0.87900000       0.45170000
C        2.60450000      -1.50190000       1.81030000
C        1.90610000      -0.12650000       2.15810000
C        2.73130000       0.47950000       1.00160000
C        0.80640000      -0.56200000       1.12330000
H        0.73590000       2.12590000      -0.35050000
H       -0.91470000       1.86660000      -0.90280000
H       -0.58470000       2.03160000       0.82620000
H       -1.06500000      -0.30820000       0.07770000
H        0.18900000      -0.46680000      -2.22090000
H        2.47870000      -1.55060000      -1.73680000
H        2.08850000      -2.41140000       2.12910000
H        3.67820000      -1.55320000       2.01120000
H        1.76970000       0.28510000       3.15990000
H        3.81500000       0.52000000       1.14570000
H        2.36590000       1.39620000       0.54320000
H        0.28070000      -1.46540000       1.45240000
