18
Properties=species:S:1:pos:R:3 gdb_88021=T pbc="F F F"
O        0.05850000       1.31760000      -0.01360000
C        0.08310000      -0.06750000       0.10590000
C       -0.53160000      -0.73340000       1.33290000
C       -1.23260000      -0.77290000       0.00960000
O       -2.38080000       0.04940000      -0.24370000
C       -2.91560000      -0.93030000      -1.18270000
C       -1.76050000      -1.87680000      -0.87130000
C       -1.04060000      -2.88870000      -1.66420000
N       -1.92320000      -3.28290000      -0.54390000
H       -0.83320000       1.54660000      -0.31420000
H        0.96970000      -0.52310000      -0.32960000
H       -0.07450000      -1.64550000       1.70750000
H       -0.95920000      -0.08250000       2.08870000
H       -3.90310000      -1.28660000      -0.87550000
H       -2.95340000      -0.53130000      -2.20200000
H       -1.39990000      -3.17300000      -2.64960000
H        0.03750000      -2.96030000      -1.53810000
H       -1.37530000      -3.52000000       0.28080000
