12
Properties=species:S:1:pos:R:3 gdb_125557=T pbc="F F F"
C       -0.01620000       1.42000000       0.04240000
C       -0.01250000      -0.05540000      -0.05090000
N       -0.20260000      -0.77960000      -1.11040000
N       -0.08910000      -2.05240000      -0.60740000
N       -0.15390000      -3.32540000      -1.04530000
N        0.05940000      -4.03430000       0.02840000
N        0.26320000      -3.27580000       1.16210000
C        0.15920000      -2.05780000       0.70430000
O        0.21820000      -0.77380000       1.11390000
H        0.94880000       1.78210000       0.40990000
H       -0.20950000       1.83830000      -0.94540000
H       -0.78940000       1.75700000       0.73940000
