21
Properties=species:S:1:pos:R:3 gdb_95968=T pbc="F F F"
O       -0.08950000       1.51900000       0.85540000
C        0.05310000       0.25230000       0.22100000
C        0.60800000      -0.82730000       1.16950000
O       -0.51000000      -1.49410000       1.75230000
C       -1.70460000      -0.85690000       1.30780000
C       -1.35830000      -0.26570000      -0.05970000
C       -2.41670000       0.66250000      -0.70660000
C       -2.84540000      -0.51060000      -1.63210000
C       -1.53980000      -1.25930000      -1.24620000
H        0.77750000       1.80380000       1.16050000
H        0.65590000       0.34310000      -0.69370000
H        1.21920000      -1.56390000       0.63100000
H        1.23280000      -0.37380000       1.95260000
H       -2.49810000      -1.61040000       1.27620000
H       -2.00340000      -0.05590000       2.00090000
H       -3.17420000       1.07880000      -0.03750000
H       -1.95400000       1.48900000      -1.25150000
H       -3.74040000      -1.02150000      -1.26730000
H       -2.99040000      -0.28260000      -2.69030000
H       -0.75800000      -1.14410000      -2.00370000
H       -1.61750000      -2.31890000      -0.98900000
