21
Properties=species:S:1:pos:R:3 gdb_96826=T pbc="F F F"
C       -0.01000000       1.35140000       0.10840000
N       -0.04090000      -0.10140000       0.17380000
C       -1.16000000      -0.68210000       0.08860000
N       -2.49210000      -0.32610000      -0.07570000
C       -2.89120000      -1.68410000      -0.56260000
C       -4.09820000      -2.24860000       0.17410000
C       -3.03560000      -1.76590000      -2.07820000
C       -1.47430000      -2.16290000      -0.04720000
O       -0.65130000      -2.87450000      -0.92910000
H        0.97720000       1.68000000      -0.22840000
H       -0.75930000       1.77960000      -0.57730000
H       -0.18090000       1.79170000       1.09980000
H       -2.82380000       0.55040000      -0.45720000
H       -5.01140000      -1.70350000      -0.08980000
H       -4.24960000      -3.30120000      -0.08700000
H       -3.96110000      -2.17450000       1.25660000
H       -2.14730000      -1.37680000      -2.58140000
H       -3.16810000      -2.80420000      -2.39550000
H       -3.90910000      -1.19450000      -2.41260000
H       -1.55810000      -2.68820000       0.91300000
H        0.14580000      -2.34060000      -1.04040000
