19
Properties=species:S:1:pos:R:3 gdb_120829=T pbc="F F F"
C       -0.13350000       1.34350000       0.32530000
O       -0.18920000      -0.05960000       0.42560000
C       -1.22360000      -0.61850000      -0.35710000
C       -1.15910000      -2.11750000      -0.21740000
C       -1.79380000      -2.79180000       0.98010000
C       -2.38800000      -2.95660000      -0.39250000
O       -3.58590000      -2.27450000      -0.71870000
C       -4.72850000      -2.79460000      -0.21720000
O       -5.80060000      -2.32520000      -0.44990000
H        0.68810000       1.68410000       0.95990000
H        0.05520000       1.67320000      -0.70890000
H       -1.06770000       1.81600000       0.66840000
H       -2.20640000      -0.24200000      -0.03550000
H       -1.10160000      -0.33210000      -1.41570000
H       -0.23810000      -2.55530000      -0.59000000
H       -1.30020000      -3.64160000       1.43740000
H       -2.32710000      -2.14810000       1.67150000
H       -2.29270000      -3.91010000      -0.90380000
H       -4.55060000      -3.68250000       0.41770000
