15
Properties=species:S:1:pos:R:3 gdb_125449=T pbc="F F F"
C       -0.03530000       1.44150000       0.08150000
C       -0.04240000      -0.04010000      -0.04060000
N       -1.05760000      -0.82880000      -0.20850000
C       -0.46030000      -2.07510000      -0.24390000
N       -1.19930000      -3.21850000      -0.43310000
C       -0.77200000      -4.29960000       0.11220000
N       -1.34620000      -5.49660000      -0.13440000
N        0.85250000      -2.04960000      -0.12580000
O        1.13410000      -0.68030000       0.02220000
H        0.57310000       1.89050000      -0.70930000
H       -1.05720000       1.81220000       0.00570000
H        0.39140000       1.74840000       1.04130000
H        0.08380000      -4.33320000       0.79380000
H       -1.13620000      -6.29140000       0.44180000
H       -2.18060000      -5.52150000      -0.69910000
