19
Properties=species:S:1:pos:R:3 gdb_66113=T pbc="F F F"
N       -0.04410000       1.45290000       0.06010000
C       -0.01220000      -0.01330000       0.00850000
C        0.66130000      -0.59250000       1.28890000
C       -0.01270000      -1.95660000       1.53880000
C       -1.41370000      -1.80910000       0.96150000
C       -2.18390000      -0.55890000       1.30350000
C       -1.41290000      -0.63250000       0.01090000
C        0.70490000      -0.50110000      -1.19540000
N        1.27150000      -0.84050000      -2.14530000
H        0.90440000       1.81940000       0.03440000
H       -0.51040000       1.81780000      -0.76630000
H        1.74600000      -0.66640000       1.18550000
H        0.45500000       0.11120000       2.09910000
H        0.51810000      -2.74970000       1.00070000
H       -0.00640000      -2.22430000       2.60050000
H       -1.97090000      -2.70780000       0.72290000
H       -3.26400000      -0.60520000       1.22080000
H       -1.83100000       0.09910000       2.08970000
H       -1.95130000      -0.65570000      -0.92960000
