17
Properties=species:S:1:pos:R:3 gdb_52283=T pbc="F F F"
O       -0.47080000       0.64390000       0.89530000
C        0.02210000       1.02940000      -0.13240000
C        1.34690000       1.74920000      -0.24250000
C        1.21180000       3.08960000      -0.98590000
C        2.57010000       3.72680000      -1.24550000
O        3.42630000       2.92960000      -2.10420000
C        3.55520000       3.95640000      -3.11000000
C        2.63240000       4.86060000      -2.28360000
O        2.15200000       5.94490000      -2.39780000
H       -0.49370000       0.87200000      -1.10960000
H        1.76030000       1.88240000       0.76140000
H        2.03040000       1.10820000      -0.81640000
H        0.69930000       2.93410000      -1.94330000
H        0.60580000       3.79460000      -0.40520000
H        3.07520000       3.97160000      -0.29990000
H        4.58400000       4.32220000      -3.22010000
H        3.17120000       3.65020000      -4.09090000
