18
Properties=species:S:1:pos:R:3 gdb_20233=T pbc="F F F"
C       -0.04540000       1.59090000       0.00530000
C        1.44300000       2.06870000      -0.00670000
C        2.25400000       0.76540000       0.00230000
C        2.12890000      -0.07720000       1.27990000
C        0.66480000      -0.54740000       1.29160000
C        1.71450000      -1.32050000       0.53040000
C        1.39500000      -0.35520000      -0.66660000
C        0.05400000       0.05910000       0.01990000
H       -0.59820000       1.96590000       0.87270000
H       -0.57710000       1.94150000      -0.88600000
H        1.65810000       2.65900000      -0.90420000
H        1.68680000       2.69970000       0.85410000
H        3.27970000       0.84550000      -0.36380000
H        2.70240000      -0.00140000       2.19540000
H        0.16770000      -0.81520000       2.21570000
H        2.04440000      -2.34630000       0.59870000
H        1.45750000      -0.57660000      -1.73010000
H       -0.83180000      -0.47450000      -0.33080000
