20
Properties=species:S:1:pos:R:3 gdb_57667=T pbc="F F F"
C       -0.04640000       1.55210000       0.00740000
C        0.05930000       0.02280000       0.06360000
C        0.78220000      -0.45720000       1.32660000
C       -1.36380000      -0.58180000      -0.02570000
C       -1.41250000      -2.03530000       0.06010000
C       -1.46650000      -3.23280000       0.14200000
O        0.70380000      -0.47680000      -1.13410000
C        1.98370000      -0.15520000      -1.38890000
N        2.52670000      -0.55140000      -2.45960000
H        0.93890000       2.02410000       0.05090000
H       -0.53700000       1.86760000      -0.91780000
H       -0.62830000       1.92480000       0.85570000
H        0.20500000      -0.17770000       2.21340000
H        0.88700000      -1.54390000       1.31180000
H        1.77310000      -0.00610000       1.42440000
H       -1.97200000      -0.14450000       0.77520000
H       -1.80430000      -0.25570000      -0.97480000
H       -1.51080000      -4.29210000       0.19890000
H        2.46910000       0.44730000      -0.61290000
H        3.49180000      -0.22900000      -2.49360000
