17
Properties=species:S:1:pos:R:3 gdb_38131=T pbc="F F F"
C       -0.02910000       1.58560000      -0.10360000
O        1.34930000       1.98030000       0.01020000
C        2.01620000       0.94050000       0.74230000
C        1.55540000       0.99430000       2.18750000
C        0.47120000       0.27880000       2.49510000
C       -0.00370000      -0.65240000       1.40280000
O        1.17200000      -1.42220000       0.98170000
C        1.46400000      -0.35430000       0.06470000
C       -0.01610000       0.06120000       0.00030000
H       -0.63200000       2.05320000       0.68610000
H       -0.39110000       1.93910000      -1.07320000
H        3.08790000       1.10330000       0.61810000
H        2.04820000       1.66850000       2.87970000
H       -0.00970000       0.29790000       3.46680000
H       -0.84110000      -1.29670000       1.67480000
H        2.03250000      -0.67730000      -0.80920000
H       -0.62600000      -0.46320000      -0.73440000
