17
Properties=species:S:1:pos:R:3 gdb_66007=T pbc="F F F"
O        0.04450000       1.52260000       1.05070000
C       -0.05400000       0.22400000       0.51050000
C        0.54730000       0.03600000      -0.92160000
N        1.44250000      -0.97640000      -0.32750000
C        1.08410000      -0.69640000       0.97240000
N        1.48530000      -0.92590000       2.15100000
C       -1.45600000      -0.30540000       0.72090000
C       -2.54310000      -0.01260000      -0.21620000
O       -1.93240000      -1.30720000      -0.17600000
H        0.53510000       1.43530000       1.87840000
H       -0.12060000      -0.36640000      -1.68510000
H        1.05210000       0.94240000      -1.26780000
H        2.33360000      -1.30130000      -0.67270000
H        2.33610000      -1.48910000       2.17900000
H       -1.70370000      -0.47560000       1.76890000
H       -3.56850000       0.03160000       0.14590000
H       -2.34010000       0.57240000      -1.11200000
