12
Properties=species:S:1:pos:R:3 gdb_23716=T pbc="F F F"
O        0.08300000       1.36130000      -0.12080000
C        0.06530000       0.00330000      -0.02760000
C        0.01380000      -0.73360000      -1.21160000
N       -0.00750000      -2.06720000      -1.23630000
C        0.02180000      -2.69990000      -0.08650000
F       -0.00050000      -4.03200000      -0.14000000
C        0.07360000      -2.08280000       1.15850000
C        0.09560000      -0.69500000       1.18090000
H        0.11880000       1.74400000       0.76180000
H       -0.01060000      -0.21330000      -2.16470000
H        0.09530000      -2.67290000       2.06600000
H        0.13600000      -0.16190000       2.12690000
