17
Properties=species:S:1:pos:R:3 gdb_97491=T pbc="F F F"
C        0.08190000       1.59120000       0.14710000
C       -0.02520000       0.06120000      -0.00270000
C        0.61590000      -0.44020000      -1.20910000
C        1.15350000      -0.84000000      -2.21800000
C        1.75610000      -1.28910000      -3.35100000
C        2.29410000      -1.68020000      -4.36270000
C        2.92650000      -2.20500000      -5.55910000
C        3.04480000      -3.73440000      -5.53960000
O        2.91730000      -4.41860000      -6.51690000
H        1.12810000       1.90480000       0.18950000
H       -0.38990000       2.09790000      -0.69870000
H       -0.41470000       1.91520000       1.06620000
H        0.42290000      -0.42690000       0.87270000
H       -1.08220000      -0.23580000      -0.00560000
H        2.39670000      -1.91660000      -6.47330000
H        3.95230000      -1.81350000      -5.64900000
H        3.27660000      -4.16320000      -4.54120000
