21
Properties=species:S:1:pos:R:3 gdb_102597=T pbc="F F F"
O        0.14170000       1.42750000       0.16900000
C        0.06220000       0.02540000       0.02260000
C       -1.38490000      -0.50640000      -0.02870000
C       -2.08120000      -0.10210000      -1.33100000
O       -2.14170000       1.32790000      -1.39090000
C       -1.41810000      -2.02060000       0.17750000
C       -2.76570000      -2.77300000       0.28120000
C       -2.20620000      -3.63620000      -0.86640000
O       -1.05550000      -2.77690000      -1.01050000
H       -0.49120000       1.80010000      -0.45970000
H        0.60230000      -0.32480000      -0.87440000
H        0.57470000      -0.40690000       0.89040000
H       -1.92730000      -0.05120000       0.81260000
H       -1.51530000      -0.50660000      -2.17920000
H       -3.09770000      -0.51830000      -1.37820000
H       -2.39080000       1.58380000      -2.28360000
H       -0.74180000      -2.27760000       1.00570000
H       -2.95520000      -3.28120000       1.22760000
H       -3.64140000      -2.17840000       0.01570000
H       -1.91800000      -4.65490000      -0.57630000
H       -2.79880000      -3.68510000      -1.78700000
