21
Properties=species:S:1:pos:R:3 gdb_73028=T pbc="F F F"
C       -0.16520000       1.50530000      -0.03140000
C       -0.03840000       0.02310000       0.10200000
O       -0.82760000      -0.78470000      -0.79220000
C       -1.12020000      -1.71850000       0.28220000
C       -0.20420000      -0.97140000       1.23930000
C        1.15470000      -0.75580000       0.57850000
C        1.87110000      -1.77040000      -0.25490000
C        3.34160000      -1.60160000      -0.55210000
C        2.88050000      -2.70330000       0.36970000
H        0.41340000       2.01040000       0.74740000
H        0.21680000       1.83590000      -1.00410000
H       -1.21060000       1.82050000       0.04690000
H       -2.17990000      -1.66420000       0.55610000
H       -0.86020000      -2.75110000       0.02110000
H       -0.37900000      -0.81610000       2.29610000
H        1.80540000      -0.16070000       1.21830000
H        1.27180000      -2.17480000      -1.06360000
H        3.70150000      -1.86900000      -1.53950000
H        3.85440000      -0.75290000      -0.11040000
H        3.08110000      -2.59210000       1.43050000
H        2.92710000      -3.72750000       0.01580000
