15
Properties=species:S:1:pos:R:3 gdb_24408=T pbc="F F F"
C        0.12430000       1.46770000       0.24130000
O        0.96800000       2.18100000      -0.70570000
C        1.98490000       1.42970000      -1.12260000
C        2.06660000       0.06570000      -1.16190000
C        3.32960000      -0.20200000      -1.79800000
C        3.88040000       1.00390000      -2.08320000
O        3.04570000       2.03050000      -1.66970000
C        0.89780000      -0.67400000      -0.72920000
C       -0.07360000       0.00900000      -0.10520000
H        0.58360000       1.57800000       1.23860000
H       -0.81840000       2.01830000       0.24280000
H        3.76710000      -1.16540000      -2.01050000
H        4.80410000       1.32290000      -2.53240000
H        0.79460000      -1.72860000      -0.96160000
H       -1.00320000      -0.45460000       0.20370000
