18
Properties=species:S:1:pos:R:3 gdb_109090=T pbc="F F F"
O        0.11700000       1.39180000       0.37400000
C        0.04440000       0.01800000       0.10050000
C       -1.37650000      -0.44660000      -0.00330000
N       -2.37910000       0.32600000       0.12600000
C       -3.57670000      -0.50450000      -0.03320000
C       -4.22380000      -0.44590000      -1.44540000
C       -3.54470000      -1.80640000      -1.80640000
C       -3.00710000      -1.92020000      -0.35990000
O       -1.57470000      -1.76840000      -0.23650000
H       -0.79910000       1.70170000       0.42560000
H        0.55950000      -0.22490000      -0.84210000
H        0.54380000      -0.56960000       0.88660000
H       -4.25030000      -0.37570000       0.81740000
H       -5.31520000      -0.49180000      -1.42550000
H       -3.91840000       0.41620000      -2.04090000
H       -4.22710000      -2.60560000      -2.10380000
H       -2.74430000      -1.74070000      -2.54640000
H       -3.30690000      -2.79170000       0.22260000
