19
Properties=species:S:1:pos:R:3 gdb_6185=T pbc="F F F"
C        0.10800000       1.41660000       0.19680000
C       -0.06580000      -0.08330000      -0.05960000
C       -1.53830000      -0.47550000      -0.10400000
C        0.73910000      -0.56970000      -1.28670000
C        2.10690000      -0.92100000      -0.69010000
C        1.77250000      -1.28440000       0.74100000
N        2.51500000      -1.93480000       1.52940000
O        0.53560000      -0.80310000       1.05640000
H        1.16540000       1.69750000       0.20960000
H       -0.39140000       2.00020000      -0.58310000
H       -0.32640000       1.68760000       1.16300000
H       -2.03290000       0.00230000      -0.95570000
H       -1.64290000      -1.55920000      -0.20510000
H       -2.05200000      -0.16310000       0.80970000
H        0.26620000      -1.46270000      -1.70730000
H        0.78400000       0.18730000      -2.07270000
H        2.62370000      -1.74020000      -1.19050000
H        2.78480000      -0.06050000      -0.69040000
H        2.06450000      -2.03300000       2.44130000
