15
Properties=species:S:1:pos:R:3 gdb_29735=T pbc="F F F"
C       -0.04190000       1.43280000       0.03140000
N       -0.00280000      -0.01680000       0.01740000
C       -0.00700000      -0.82230000      -1.07590000
N       -0.08900000      -0.31720000      -2.35970000
N       -0.00870000      -2.10980000      -0.76620000
C       -0.00290000      -2.14790000       0.59640000
C        0.01230000      -0.87630000       1.12570000
C        0.03370000      -0.40570000       2.44920000
N        0.04780000       0.00660000       3.53440000
H        0.94620000       1.86490000      -0.16400000
H       -0.74530000       1.78500000      -0.72770000
H       -0.37720000       1.77110000       1.01270000
H        0.53680000       0.45090000      -2.56350000
H        0.00340000      -1.05860000      -3.04140000
H       -0.00160000      -3.07890000       1.14180000
