20
Properties=species:S:1:pos:R:3 gdb_112254=T pbc="F F F"
C        0.16510000       1.71630000       0.03880000
C       -0.16350000       0.22060000       0.10580000
C        0.58840000      -0.47690000       1.24140000
C        0.51290000      -2.01590000       1.43410000
C       -0.14940000      -2.89350000       0.39020000
O        0.18810000      -4.25200000       0.59430000
O        1.97870000      -2.09960000       1.29030000
C        2.07130000      -0.74130000       1.05340000
N        3.06630000      -0.03280000       0.76960000
H        1.23940000       1.86850000      -0.09470000
H       -0.36050000       2.19330000      -0.79360000
H       -0.13460000       2.22610000       0.96110000
H       -1.24120000       0.07950000       0.25510000
H        0.08540000      -0.25060000      -0.85130000
H        0.40090000       0.05130000       2.18200000
H        0.23050000      -2.34890000       2.43700000
H       -1.23870000      -2.82010000       0.47910000
H        0.13070000      -2.55600000      -0.61850000
H        1.15080000      -4.30390000       0.56970000
H        3.92040000      -0.59060000       0.71380000
