20
Properties=species:S:1:pos:R:3 gdb_107386=T pbc="F F F"
C       -0.13020000       1.55620000       0.45220000
C       -0.10730000       0.09910000       0.11780000
C       -0.37390000      -0.46720000      -1.06480000
C       -0.15630000      -1.94560000      -1.02690000
C       -1.00520000      -2.86550000      -1.87890000
O       -0.65660000      -4.23610000      -1.71430000
N        1.26540000      -2.29790000      -0.74410000
C        0.27390000      -2.25030000       0.36150000
C        0.28770000      -0.94770000       1.15090000
H        0.86750000       1.91080000       0.74070000
H       -0.47110000       2.15960000      -0.39350000
H       -0.78990000       1.75750000       1.30610000
H       -0.66660000       0.06880000      -1.96160000
H       -2.05770000      -2.76170000      -1.58780000
H       -0.93430000      -2.56620000      -2.93490000
H       -0.05640000      -4.48060000      -2.42330000
H        1.37280000      -3.28720000      -0.97320000
H        0.00780000      -3.18560000       0.84100000
H        1.27590000      -0.73910000       1.57970000
H       -0.42360000      -0.97150000       1.98800000
