23
Properties=species:S:1:pos:R:3 gdb_121927=T pbc="F F F"
C        0.14560000       1.36380000       0.21780000
C       -0.04250000      -0.14540000       0.04110000
O       -1.42330000      -0.50440000       0.03210000
C       -2.08710000      -0.45660000       1.28260000
C       -3.37760000      -1.24580000       1.10960000
O       -3.11290000      -2.57140000       0.69910000
C        0.54870000      -0.64220000      -1.25600000
C        2.00250000      -1.03540000      -1.31820000
C        0.92870000      -2.09130000      -1.40640000
H        1.20910000       1.61820000       0.18580000
H       -0.36480000       1.90400000      -0.58600000
H       -0.25540000       1.71240000       1.17380000
H        0.45230000      -0.67070000       0.87660000
H       -1.46360000      -0.92580000       2.06050000
H       -2.30700000       0.57660000       1.59250000
H       -3.91330000      -1.29570000       2.06340000
H       -4.02320000      -0.72120000       0.38670000
H       -2.48070000      -2.48720000      -0.02560000
H        0.13890000      -0.15430000      -2.13650000
H        2.56340000      -0.78880000      -2.21270000
H        2.58470000      -0.98160000      -0.40370000
H        0.78740000      -2.74170000      -0.54930000
H        0.75450000      -2.57300000      -2.36190000
