16
Properties=species:S:1:pos:R:3 gdb_125243=T pbc="F F F"
C       -0.06980000       1.41560000      -0.36130000
C       -0.02640000      -0.05030000      -0.11290000
C       -0.83550000      -1.08610000      -0.46140000
C       -0.19500000      -2.22460000       0.10300000
C       -0.63600000      -3.66530000       0.08240000
C       -1.05240000      -4.12330000      -1.23970000
C       -1.40650000      -4.49220000      -2.32660000
N        0.90680000      -1.89830000       0.73380000
O        1.01650000      -0.51510000       0.60150000
H       -0.09410000       1.97210000       0.58130000
H        0.81560000       1.74480000      -0.91490000
H       -0.95810000       1.67310000      -0.94070000
H       -1.74240000      -1.05550000      -1.04150000
H        0.18790000      -4.27970000       0.46080000
H       -1.46870000      -3.79560000       0.78700000
H       -1.71060000      -4.82670000      -3.28740000
