22
Properties=species:S:1:pos:R:3 gdb_60982=T pbc="F F F"
C       -0.61380000       1.17530000       0.07560000
N       -0.03980000      -0.16060000       0.15940000
C        0.67950000      -0.50670000       1.27190000
O        0.79090000       0.16790000       2.27450000
C        0.00990000      -0.93510000      -1.04510000
C       -0.09390000      -2.44160000      -1.00470000
C       -1.22170000      -1.63240000      -1.60300000
C       -2.52460000      -1.57680000      -0.82910000
C       -1.38010000      -1.63940000      -3.11120000
H       -0.09850000       1.77270000      -0.68740000
H       -1.67530000       1.12530000      -0.18330000
H       -0.49260000       1.65250000       1.04790000
H        1.15090000      -1.49910000       1.16070000
H        0.68220000      -0.52370000      -1.79960000
H        0.55960000      -3.00770000      -1.65980000
H       -0.27740000      -2.91140000      -0.04520000
H       -2.35270000      -1.47610000       0.24560000
H       -3.14290000      -0.73240000      -1.15450000
H       -3.10700000      -2.49060000      -0.99270000
H       -1.95020000      -2.51580000      -3.44040000
H       -1.91480000      -0.74690000      -3.45680000
H       -0.41010000      -1.66660000      -3.61770000
