21
Properties=species:S:1:pos:R:3 gdb_89425=T pbc="F F F"
C       -0.46240000       1.47880000       0.11580000
C        0.00290000       0.01060000       0.00820000
C        0.68470000      -0.29050000      -1.34860000
C        2.16560000       0.04540000      -1.41640000
C        2.84840000      -0.23070000      -2.73620000
O        2.57260000       1.25490000      -0.76760000
C        2.92380000      -0.01330000      -0.15030000
C        2.21870000      -0.37170000       1.10240000
C        0.88650000      -0.36410000       1.17230000
H        0.39100000       2.15230000       0.01960000
H       -1.18510000       1.70770000      -0.67560000
H       -0.94830000       1.66660000       1.07890000
H       -0.89830000      -0.61450000       0.06080000
H        0.59120000      -1.36140000      -1.57110000
H        0.15290000       0.23850000      -2.14940000
H        2.39520000       0.36660000      -3.53540000
H        3.90940000       0.02520000      -2.68100000
H        2.75540000      -1.28620000      -3.01320000
H        3.99090000      -0.22500000      -0.19300000
H        2.82460000      -0.63780000       1.96330000
H        0.39180000      -0.60580000       2.10990000
