20
Properties=species:S:1:pos:R:3 gdb_59000=T pbc="F F F"
C        0.40270000       0.86890000      -0.76590000
C       -0.08480000       0.10600000       0.46550000
O        0.06130000       0.89170000       1.65550000
C       -1.49030000      -0.41700000       0.35850000
C       -2.32950000      -0.38910000      -0.68190000
C       -3.59920000      -1.09060000      -0.35030000
C       -3.46050000      -2.53660000      -0.01090000
N       -3.49790000      -1.53940000       1.06160000
C       -2.16710000      -1.10180000       1.53760000
H        1.41340000       1.24370000      -0.58730000
H        0.42000000       0.22600000      -1.65120000
H       -0.24930000       1.72350000      -0.97950000
H        0.58900000      -0.74470000       0.63890000
H       -0.53860000       1.64230000       1.57580000
H       -2.13500000       0.05010000      -1.65230000
H       -4.55230000      -0.69080000      -0.68720000
H       -4.32660000      -3.19270000      -0.04180000
H       -2.51130000      -3.01150000      -0.25300000
H       -1.59170000      -1.95820000       1.91300000
H       -2.28920000      -0.41470000       2.38270000
