15
Properties=species:S:1:pos:R:3 gdb_43496=T pbc="F F F"
O        0.01540000      -0.07710000      -0.16930000
C        0.00810000       1.12430000      -0.09140000
N       -1.09790000       1.95980000      -0.14610000
C       -0.80720000       3.30960000       0.12980000
O       -1.60920000       4.16280000       0.40800000
N        0.58230000       3.43560000       0.05890000
C        1.31690000       3.82310000       1.30290000
C        1.82320000       2.35880000       1.45060000
C        1.18540000       2.08310000       0.05500000
H       -2.04720000       1.62230000      -0.19820000
H        2.09910000       4.55620000       1.09530000
H        0.65930000       4.20770000       2.08530000
H        2.90300000       2.22100000       1.50400000
H        1.35030000       1.80440000       2.26310000
H        1.90660000       1.91760000      -0.74980000
