18
Properties=species:S:1:pos:R:3 gdb_71129=T pbc="F F F"
C       -0.01050000       1.49320000       0.12180000
C        0.01800000      -0.01110000      -0.01020000
C        0.67280000      -0.53440000      -1.29760000
N        0.57550000      -2.00840000      -1.36330000
C       -0.00120000      -2.58940000      -0.17360000
C        0.22700000      -1.90290000       1.15660000
O        0.72510000      -0.59020000       1.08870000
C       -1.14350000      -1.86770000       0.52920000
O       -1.31110000      -0.54190000       0.07140000
H        1.00260000       1.89720000       0.05730000
H       -0.61710000       1.92780000      -0.67610000
H       -0.44210000       1.76570000       1.08690000
H        0.18540000      -0.08030000      -2.16610000
H        1.72530000      -0.22090000      -1.29850000
H        0.01060000      -2.27570000      -2.16050000
H       -0.00320000      -3.67540000      -0.16460000
H        0.51170000      -2.42580000       2.06000000
H       -2.05240000      -2.31490000       0.91130000
