15
Properties=species:S:1:pos:R:3 gdb_49011=T pbc="F F F"
O       -0.24780000       0.02920000       0.06400000
C       -0.02920000       1.19190000       0.29680000
C        1.27210000       1.87440000       0.02600000
C        1.64450000       3.14310000       0.81560000
O        1.90490000       3.90790000      -0.38460000
C        1.46110000       2.83250000      -1.22810000
C        2.65890000       1.93750000      -1.64950000
O        3.42910000       1.98190000      -2.55880000
C        2.46500000       1.00540000      -0.44040000
H       -0.82110000       1.85300000       0.71620000
H        0.80970000       3.57860000       1.38000000
H        2.52350000       3.06680000       1.46430000
H        0.69670000       3.12440000      -1.95330000
H        3.31270000       0.90240000       0.24160000
H        2.13050000       0.00860000      -0.74770000
