19
Properties=species:S:1:pos:R:3 gdb_81215=T pbc="F F F"
C       -0.05160000       1.55390000       0.11030000
C        0.01170000       0.04800000      -0.05760000
C        1.27160000      -0.59300000      -0.65070000
O        2.02850000      -0.22460000       0.60290000
C        0.73430000      -0.81440000       1.03600000
C        0.07980000      -1.36290000       2.28300000
C       -0.72790000      -2.47590000       1.58240000
C       -0.32410000      -2.75190000       0.32850000
C        0.92870000      -1.95870000       0.04720000
H        0.89880000       1.94080000       0.48280000
H       -0.27570000       2.04100000      -0.84530000
H       -0.84490000       1.83600000       0.81150000
H       -0.93060000      -0.37390000      -0.41610000
H        1.79940000      -0.39510000      -1.58520000
H        0.79700000      -1.78440000       2.99970000
H       -0.55380000      -0.64940000       2.81960000
H       -1.54280000      -2.97960000       2.09200000
H       -0.75940000      -3.52040000      -0.30030000
H        1.84200000      -2.53870000       0.21430000
