18
Properties=species:S:1:pos:R:3 gdb_115702=T pbc="F F F"
O       -0.09980000       1.47770000      -0.14160000
C       -0.06340000       0.11840000       0.26560000
C       -1.45240000      -0.44610000       0.02440000
C       -1.84890000      -0.62540000      -1.46400000
N       -1.69810000      -2.10300000      -1.32560000
H       -2.47290000      -2.65580000      -1.67510000
H       -0.06850000      -3.06700000      -1.06680000
C       -1.60380000      -1.99780000       0.15290000
C       -0.41420000      -2.76740000       0.72870000
O        0.36330000      -3.31420000      -0.21660000
O       -0.18640000      -2.84700000       1.90690000
H        0.76790000       1.86200000       0.01340000
H        0.68030000      -0.45350000      -0.31190000
H        0.19520000       0.01440000       1.32920000
H       -2.17300000       0.11990000       0.61580000
H       -2.87330000      -0.30580000      -1.68070000
H       -1.17560000      -0.17910000      -2.20100000
H       -2.50110000      -2.28680000       0.70810000
