14
Properties=species:S:1:pos:R:3 gdb_812=T pbc="F F F"
C        0.10860000       1.53880000      -0.06690000
C       -0.03310000       0.03940000       0.11700000
O        0.77110000      -0.73350000      -0.82250000
C        1.48570000      -1.41720000       0.23370000
C        0.71590000      -0.61940000       1.25410000
N        0.66430000      -0.47000000       2.50590000
O        1.59090000      -1.30790000       3.15090000
H        1.15610000       1.84250000       0.00870000
H       -0.27170000       1.83240000      -1.04990000
H       -0.46650000       2.06580000       0.70080000
H       -1.08880000      -0.26060000       0.05480000
H        1.29890000      -2.49890000       0.24340000
H        2.56810000      -1.24100000       0.20100000
H        1.44800000      -1.09540000       4.07960000
