18
Properties=species:S:1:pos:R:3 gdb_92526=T pbc="F F F"
O        0.24230000       1.23950000       0.58800000
C        0.08300000      -0.08720000       0.17190000
C       -1.38040000      -0.58200000       0.11790000
C       -1.32040000      -1.67230000      -0.97410000
C       -2.19190000      -1.60330000      -2.26520000
C       -0.87480000      -1.39720000      -3.07390000
N       -0.12810000      -1.33860000      -1.79590000
C        0.51200000      -0.23870000      -1.30230000
O        1.20870000       0.56190000      -1.89260000
H        0.80660000       1.64960000      -0.08760000
H        0.68540000      -0.76640000       0.79760000
H       -1.75290000      -0.94700000       1.07680000
H       -2.00930000       0.25670000      -0.20000000
H       -1.25990000      -2.67830000      -0.54580000
H       -2.76110000      -2.50270000      -2.50410000
H       -2.85890000      -0.73890000      -2.29060000
H       -0.58000000      -2.24750000      -3.69410000
H       -0.78400000      -0.47740000      -3.65730000
