15
Properties=species:S:1:pos:R:3 gdb_131510=T pbc="F F F"
O        0.38320000       1.00900000      -0.68580000
C       -0.01920000      -0.09800000       0.08790000
C        0.51700000      -0.07900000       1.56580000
C       -0.61520000      -0.72560000       2.29580000
N       -0.84360000      -1.28880000       3.44220000
O       -2.17600000      -1.65900000       3.38180000
N       -2.75490000      -1.31470000       2.17180000
C       -1.79740000      -0.74220000       1.50980000
C       -1.57710000      -0.11170000       0.17320000
H        1.31660000       0.91450000      -0.89940000
H        0.30620000      -1.03970000      -0.37840000
H        1.47700000      -0.58800000       1.67910000
H        0.64360000       0.96330000       1.88150000
H       -1.93850000       0.92330000       0.15950000
H       -2.03930000      -0.63940000      -0.66260000
