20
Properties=species:S:1:pos:R:3 gdb_8451=T pbc="F F F"
C       -0.05540000       1.46730000       0.06190000
C       -0.00730000      -0.01960000       0.00060000
C       -0.03220000      -0.87490000      -1.02670000
C        0.05100000      -2.26570000      -0.36570000
C        0.04740000      -3.49980000      -1.23840000
C       -0.96140000      -2.05120000       0.81850000
C        0.08980000      -0.96240000       1.21720000
C        1.16540000      -1.97760000       0.70580000
H        0.83790000       1.87820000       0.55070000
H       -0.12560000       1.90650000      -0.93760000
H       -0.91560000       1.81750000       0.64750000
H       -0.09530000      -0.67940000      -2.08920000
H        0.89680000      -3.49710000      -1.93120000
H        0.11070000      -4.41270000      -0.63700000
H       -0.86850000      -3.55810000      -1.83780000
H       -1.96890000      -1.71200000       0.56380000
H       -0.99800000      -2.89700000       1.51440000
H        0.12730000      -0.52100000       2.21380000
H        1.33350000      -2.81640000       1.39080000
H        2.11470000      -1.57080000       0.34740000
