21
Properties=species:S:1:pos:R:3 gdb_95912=T pbc="F F F"
C       -0.48140000       1.36080000       0.00660000
C        0.06550000      -0.06170000      -0.06830000
C        1.14230000      -0.31200000      -1.13370000
C        1.73810000      -1.63200000      -0.65160000
O        1.74450000      -1.55130000       0.77080000
C        0.75850000      -0.60200000       1.23060000
C        1.50920000       0.46390000       2.04370000
C       -0.21650000      -1.28710000       2.08820000
C       -1.02880000      -1.82520000       2.79240000
H        0.31340000       2.09620000       0.16350000
H       -0.99280000       1.61950000      -0.92590000
H       -1.20620000       1.46340000       0.82080000
H       -0.77020000      -0.73980000      -0.27590000
H        0.73020000      -0.36960000      -2.14470000
H        1.89720000       0.48270000      -1.11890000
H        1.12500000      -2.48300000      -0.98700000
H        2.76710000      -1.80380000      -0.98220000
H        2.19900000       1.01670000       1.39970000
H        0.81910000       1.16660000       2.51720000
H        2.09080000      -0.03200000       2.82400000
H       -1.73770000      -2.31370000       3.41430000
