16
Properties=species:S:1:pos:R:3 gdb_43570=T pbc="F F F"
N       -0.03400000       1.20210000       0.34550000
C       -0.02200000      -0.01630000       0.01910000
O        1.11030000      -0.71220000      -0.34220000
C        0.76570000      -1.95210000      -1.00660000
C        1.67630000      -3.00960000      -0.58500000
C        2.41230000      -3.90080000      -0.25910000
C       -0.70620000      -2.20020000      -0.67770000
C       -1.05700000      -2.19860000       0.77570000
C       -1.19620000      -0.92310000      -0.03680000
H        0.90140000       1.60390000       0.26510000
H        0.87620000      -1.78990000      -2.08730000
H        3.06710000      -4.68480000       0.03240000
H       -1.29580000      -2.75920000      -1.39250000
H       -1.98060000      -2.68630000       1.06420000
H       -0.25780000      -2.26320000       1.50620000
H       -2.17050000      -0.49000000      -0.21330000
