17
Properties=species:S:1:pos:R:3 gdb_106122=T pbc="F F F"
C        0.09030000       1.39960000       0.32890000
O        0.03670000       0.05400000      -0.13430000
C       -1.20960000      -0.47660000      -0.11540000
C       -2.19580000      -0.86390000       0.93860000
O       -3.32030000      -0.21950000       0.33770000
C       -2.58340000      -0.23630000      -0.90780000
C       -2.54570000      -1.74880000      -1.29100000
O       -1.80950000      -2.01880000      -2.46220000
C       -1.65650000      -1.92050000      -0.07170000
H        1.13650000       1.70700000       0.28160000
H       -0.51080000       2.06230000      -0.30700000
H       -0.27050000       1.47710000       1.36230000
H       -2.15270000      -0.97680000       2.01330000
H       -2.86860000       0.54240000      -1.61380000
H       -3.52360000      -2.25020000      -1.28750000
H       -2.35140000      -1.76440000      -3.21660000
H       -1.10070000      -2.79280000       0.24570000
