18
Properties=species:S:1:pos:R:3 gdb_110484=T pbc="F F F"
O       -0.03660000       1.44720000      -0.28240000
C        0.07980000       0.06500000       0.03210000
C       -1.30950000      -0.52910000       0.00080000
C       -2.06970000      -0.68580000      -1.33090000
C       -1.30890000      -1.66870000      -2.23340000
C       -0.89430000      -2.70930000      -1.16910000
C       -2.23030000      -2.78320000      -1.84190000
N       -2.82590000      -1.90380000      -0.75000000
C       -1.52470000      -2.05340000       0.06980000
H        0.84480000       1.83170000      -0.27900000
H        0.72160000      -0.45640000      -0.69550000
H        0.52540000      -0.08250000       1.02970000
H       -1.96010000      -0.03330000       0.72890000
H       -2.64970000       0.12110000      -1.77610000
H       -0.75430000      -1.51000000      -3.14850000
H       -0.02420000      -3.34380000      -1.27330000
H       -2.75020000      -3.55560000      -2.39410000
H       -1.56570000      -2.60410000       1.01000000
