22
Properties=species:S:1:pos:R:3 gdb_102508=T pbc="F F F"
C        0.12260000       1.53070000       0.03980000
C        0.00530000       0.02830000      -0.23760000
C       -1.42420000      -0.52770000      -0.06640000
C       -2.29010000      -0.17610000      -1.29740000
O       -3.67660000      -0.13500000      -1.03520000
C       -1.36340000      -2.06020000       0.22300000
C       -0.94700000      -2.38570000       1.67250000
C       -2.63410000      -2.73200000      -0.07300000
N       -3.63760000      -3.25560000      -0.31370000
H        1.14600000       1.87910000      -0.12860000
H       -0.53600000       2.12130000      -0.60420000
H       -0.14170000       1.75810000       1.07800000
H        0.34590000      -0.19020000      -1.25950000
H        0.69700000      -0.50350000       0.42510000
H       -1.90170000      -0.04660000       0.79640000
H       -2.02330000       0.82970000      -1.63600000
H       -2.04780000      -0.86280000      -2.12550000
H       -4.00490000      -1.03840000      -0.96610000
H       -0.62560000      -2.49790000      -0.46380000
H       -0.85750000      -3.46440000       1.82250000
H        0.01710000      -1.92760000       1.90410000
H       -1.68930000      -2.00240000       2.37800000
