15
Properties=species:S:1:pos:R:3 gdb_20199=T pbc="F F F"
C        0.03410000       1.51310000       0.10310000
C        1.50300000       1.87060000      -0.10000000
C        2.16910000       0.75110000      -0.42910000
C        3.10030000       0.14210000       0.58580000
C        2.31520000      -0.72410000       1.24980000
C        1.00190000      -0.96600000       0.52150000
C        1.15160000      -0.33190000      -0.79490000
N       -0.04770000       0.04220000      -0.07370000
H       -0.25530000       1.81300000       1.11900000
H       -0.69440000       1.97010000      -0.58270000
H        1.95000000       2.71850000       0.40900000
H        4.07590000       0.50520000       0.88140000
H        2.57970000      -1.25580000       2.15610000
H        0.50620000      -1.92020000       0.65610000
H        1.11470000      -0.81090000      -1.77160000
