21
Properties=species:S:1:pos:R:3 gdb_105917=T pbc="F F F"
C       -0.24580000       1.47970000      -0.05100000
C        0.16830000       0.00200000      -0.01600000
C        0.83680000      -0.45980000      -1.27840000
C        0.08510000      -0.86110000      -2.55420000
C        0.97860000      -1.85800000      -1.84280000
C        2.14140000      -1.30600000      -2.71810000
C        1.13600000      -0.50330000      -3.63170000
C        1.79900000       0.82690000      -3.19760000
C        2.16420000       0.04670000      -1.91010000
H        0.62110000       2.12830000      -0.21560000
H       -0.95980000       1.66970000      -0.85900000
H       -0.71250000       1.78160000       0.89180000
H        0.83910000      -0.16650000       0.83750000
H       -0.71450000      -0.62480000       0.16760000
H       -0.99550000      -0.84140000      -2.62010000
H        0.76090000      -2.82590000      -1.40990000
H        3.02390000      -1.83020000      -3.07630000
H        0.92900000      -0.75150000      -4.67230000
H        2.68720000       1.04850000      -3.79910000
H        1.17500000       1.72250000      -3.11290000
H        2.97530000       0.34410000      -1.24500000
