17
Properties=species:S:1:pos:R:3 gdb_35088=T pbc="F F F"
C        0.06210000      -1.24210000       0.07090000
C        0.04350000      -0.04090000       0.05840000
C       -0.01740000       1.41560000       0.03180000
C       -0.68320000       2.04150000       1.25210000
C        0.02230000       3.04630000       1.76690000
C        1.32410000       3.26800000       1.04940000
C        2.54700000       2.55200000       1.67340000
O        2.38280000       1.42890000       0.78120000
C        1.37310000       2.11110000       0.01710000
H        0.09790000      -2.30320000       0.08700000
H       -0.56810000       1.71300000      -0.87430000
H       -1.63660000       1.68110000       1.61990000
H       -0.27740000       3.63720000       2.62590000
H        1.48550000       4.29330000       0.70930000
H        3.50630000       3.06080000       1.51070000
H        2.46180000       2.25870000       2.72550000
H        1.71940000       2.33040000      -0.99830000
