22
Properties=species:S:1:pos:R:3 gdb_56194=T pbc="F F F"
C       -0.19910000       1.46720000      -0.05260000
C       -0.14760000      -0.01530000       0.28860000
O        0.40520000      -0.42570000       1.29350000
N       -0.76030000      -0.83960000      -0.61340000
C       -0.86330000      -2.27750000      -0.42230000
C       -2.27570000      -2.73590000      -0.08150000
C       -3.39240000      -2.63600000      -1.16280000
C       -3.92750000      -4.01080000      -0.67880000
C       -2.55430000      -4.26290000       0.00040000
H        0.81830000       1.86520000      -0.03630000
H       -0.65220000       1.68320000      -1.02390000
H       -0.76480000       1.98790000       0.72530000
H       -1.23600000      -0.42800000      -1.39890000
H       -0.51720000      -2.78960000      -1.33070000
H       -0.17310000      -2.52530000       0.38820000
H       -2.59910000      -2.23960000       0.83980000
H       -4.07100000      -1.78010000      -1.12430000
H       -2.97440000      -2.70400000      -2.17410000
H       -4.72760000      -3.89570000       0.05780000
H       -4.25760000      -4.72280000      -1.43860000
H       -1.87870000      -4.82480000      -0.65390000
H       -2.54490000      -4.72890000       0.98830000
