16
Properties=species:S:1:pos:R:3 gdb_55228=T pbc="F F F"
C        0.06030000       1.37950000      -0.31140000
C       -0.01630000      -0.04470000       0.19980000
O        0.92050000      -0.60420000       0.71730000
C       -1.37480000      -0.76190000       0.08070000
C       -1.94510000      -0.89450000      -1.35570000
O       -1.60520000      -2.21660000      -1.76170000
C       -1.23420000      -2.96230000      -0.67100000
O       -0.93390000      -4.11720000      -0.73520000
N       -1.29720000      -2.15350000       0.45660000
H        0.23770000       1.37020000      -1.39330000
H       -0.87200000       1.92610000      -0.13860000
H        0.89510000       1.89450000       0.16560000
H       -2.08020000      -0.20270000       0.71060000
H       -3.03440000      -0.78300000      -1.35680000
H       -1.51630000      -0.18550000      -2.06700000
H       -0.64370000      -2.39930000       1.18760000
