19
Properties=species:S:1:pos:R:3 gdb_87404=T pbc="F F F"
C       -0.03110000       1.51400000      -0.12250000
C       -0.03350000       0.01920000       0.07360000
O        1.21790000      -0.66260000      -0.13840000
C        0.67030000      -0.66960000       1.16390000
C        1.31870000      -0.12330000       2.44730000
O        1.26050000       1.24300000       2.76950000
C        0.44850000      -1.14580000       3.23870000
C        0.19470000      -1.91690000       1.90710000
O       -1.11870000      -2.31120000       1.58860000
H        0.82740000       1.97240000       0.37070000
H        0.00300000       1.75110000      -1.19100000
H       -0.95040000       1.95380000       0.28180000
H       -0.88660000      -0.51190000      -0.34950000
H        2.37980000      -0.38900000       2.47880000
H        0.33430000       1.50690000       2.78190000
H        0.91800000      -1.67800000       4.06740000
H       -0.48410000      -0.68380000       3.57850000
H        0.90800000      -2.74160000       1.77390000
H       -1.28510000      -3.17250000       1.98310000
