17
Properties=species:S:1:pos:R:3 gdb_49073=T pbc="F F F"
O       -0.16610000      -0.00800000       0.01810000
C       -0.01330000       1.18540000      -0.01280000
C        1.31790000       1.88990000      -0.03660000
C        1.42220000       3.17570000       0.82290000
O        1.79530000       3.98060000      -0.31070000
C        1.56590000       2.88040000      -1.21490000
C        2.82400000       2.33500000      -1.91460000
O        2.98810000       1.00620000      -1.44530000
C        2.54250000       0.96460000      -0.09620000
H       -0.88840000       1.87560000      -0.02800000
H        0.47040000       3.50750000       1.25740000
H        2.19100000       3.16100000       1.60350000
H        0.73180000       3.08690000      -1.89430000
H        2.73870000       2.29410000      -3.00340000
H        3.67360000       2.97900000      -1.64000000
H        3.32840000       1.31660000       0.58980000
H        2.28710000      -0.06950000       0.14130000
