16
Properties=species:S:1:pos:R:3 gdb_115563=T pbc="F F F"
O        0.02260000       1.36500000      -0.38670000
C        0.12110000      -0.02250000      -0.13410000
C       -1.25170000      -0.55140000       0.25680000
O       -2.20520000      -0.32320000      -0.81160000
C       -2.42020000      -1.73160000      -1.00860000
C       -1.47970000      -2.09030000       0.18020000
O       -0.30260000      -2.79640000      -0.12340000
C       -2.16270000      -2.67380000       1.33880000
N       -2.69650000      -3.16730000       2.23750000
H       -0.65510000       1.47010000      -1.06560000
H        0.50270000      -0.57450000      -1.00280000
H        0.82830000      -0.15560000       0.68990000
H       -1.59100000      -0.08120000       1.18540000
H       -3.47290000      -2.00960000      -0.89920000
H       -2.02680000      -2.09230000      -1.96600000
H       -0.48880000      -3.74210000      -0.11410000
