16
Properties=species:S:1:pos:R:3 gdb_13032=T pbc="F F F"
O        0.04700000      -0.00300000       0.00120000
C       -0.02550000       1.18960000       0.03790000
C       -1.17280000       2.18400000       0.28690000
C       -0.08640000       3.24440000       0.63910000
C        1.02360000       2.32140000       0.04260000
C        2.32700000       2.10940000       0.82560000
C        3.27920000       1.24720000       0.13730000
C        4.06530000       0.55380000      -0.44980000
H       -1.71460000       2.41160000      -0.63690000
H       -1.89690000       1.90300000       1.05500000
H       -0.19430000       4.22580000       0.17620000
H        0.02670000       3.37260000       1.71880000
H        1.25390000       2.60700000      -0.99040000
H        2.78870000       3.08820000       1.01060000
H        2.09220000       1.68940000       1.81230000
H        4.75340000      -0.07400000      -0.95910000
