19
Properties=species:S:1:pos:R:3 gdb_45585=T pbc="F F F"
O       -0.06320000      -0.07160000      -0.07490000
C       -0.08180000       1.12100000       0.00920000
C       -1.18790000       2.17370000       0.20960000
C       -0.07320000       3.13530000       0.73130000
C        0.03850000       3.16530000       2.26570000
C        1.49870000       3.13290000       2.71920000
O        2.13390000       1.95380000       2.25340000
C        2.31430000       1.96170000       0.85010000
C        1.01320000       2.20100000       0.09170000
H       -1.60450000       2.48560000      -0.75410000
H       -2.00880000       1.91600000       0.88330000
H       -0.09900000       4.14650000       0.32120000
H       -0.47460000       4.04340000       2.67270000
H       -0.45080000       2.28200000       2.69350000
H        2.04170000       4.02630000       2.36460000
H        1.56920000       3.10820000       3.81030000
H        3.04950000       2.73660000       0.57410000
H        2.73190000       0.98600000       0.58290000
H        1.23650000       2.52180000      -0.93380000
