14
Properties=species:S:1:pos:R:3 gdb_99456=T pbc="F F F"
O        0.17850000       1.36410000      -0.10820000
C        0.09860000      -0.03260000      -0.06900000
C       -1.38700000      -0.51810000       0.07950000
C       -2.16770000      -0.01250000      -1.05910000
N       -2.72620000       0.43760000      -1.96460000
C       -1.45880000      -1.96820000       0.20440000
C       -1.46260000      -3.16960000       0.31200000
C       -1.46700000      -4.60580000       0.47570000
O       -1.80920000      -5.38380000      -0.38200000
H       -0.16210000       1.67070000      -0.95670000
H        0.53750000      -0.51440000      -0.95180000
H        0.64480000      -0.36610000       0.81640000
H       -1.78230000      -0.04680000       0.98860000
H       -1.12350000      -4.94830000       1.47210000
