21
Properties=species:S:1:pos:R:3 gdb_95246=T pbc="F F F"
C       -0.34490000       1.45070000       0.02110000
C        0.00710000      -0.02540000       0.00120000
O        0.70210000      -0.27490000      -1.19760000
C        0.76530000      -1.62640000      -1.61590000
C        1.71780000      -2.50460000      -0.82580000
C        2.91530000      -1.92810000      -0.10920000
C        1.76970000      -2.51270000       0.68190000
C        0.87420000      -1.64330000       1.54500000
O        0.78290000      -0.28750000       1.14650000
H        0.57450000       2.04100000      -0.00800000
H       -0.95510000       1.70370000      -0.84850000
H       -0.89270000       1.69450000       0.93390000
H       -0.89890000      -0.66020000       0.02900000
H       -0.24580000      -2.06860000      -1.60670000
H        1.09300000      -1.58930000      -2.66090000
H        1.85890000      -3.47290000      -1.30170000
H        3.85540000      -2.46710000      -0.14450000
H        3.00100000      -0.84780000      -0.10640000
H        1.94290000      -3.48590000       1.13660000
H       -0.13530000      -2.08580000       1.60070000
H        1.27310000      -1.61730000       2.56530000
