20
Properties=species:S:1:pos:R:3 gdb_111579=T pbc="F F F"
C        0.09210000       1.53990000       0.48440000
C        0.04950000       0.11230000      -0.07190000
C       -1.30840000      -0.54560000       0.09020000
C       -1.49330000      -2.04780000      -0.19610000
O       -0.48630000      -2.85090000       0.47020000
C       -1.18640000      -2.75720000       1.73550000
C       -0.93140000      -1.40390000       2.41290000
N       -1.90040000      -0.70710000       1.48590000
C       -2.40210000      -2.09090000       1.05050000
H        1.08310000       1.98420000       0.35160000
H       -0.63520000       2.18270000      -0.02310000
H       -0.14780000       1.55730000       1.55170000
H        0.28710000       0.12280000      -1.14400000
H        0.81840000      -0.50990000       0.39700000
H       -2.06250000       0.01530000      -0.47980000
H       -1.70700000      -2.40980000      -1.20480000
H       -1.15470000      -3.69390000       2.29670000
H       -1.33750000      -1.36670000       3.42990000
H        0.09410000      -1.02760000       2.42150000
H       -3.45760000      -2.34340000       1.12230000
