10
Properties=species:S:1:pos:R:3 gdb_131329=T pbc="F F F"
O        0.08060000       1.23390000      -0.13960000
C        0.06590000      -0.08810000      -0.06360000
N       -0.00060000      -0.82570000      -1.17180000
N        0.01130000      -2.05930000      -0.59230000
N       -0.02630000      -3.32990000      -0.98820000
N        0.01480000      -4.06940000       0.02380000
O        0.08620000      -3.20540000       1.23610000
C        0.07990000      -1.97970000       0.75820000
N        0.11730000      -0.73450000       1.16030000
H        0.13050000       1.57510000       0.76290000
