17
Properties=species:S:1:pos:R:3 gdb_47164=T pbc="F F F"
O        0.06920000      -0.06620000       0.07570000
C       -0.00140000       1.13910000       0.14800000
C       -1.29110000       1.96320000       0.14270000
C       -1.14720000       3.39090000       0.71990000
N        0.03890000       4.13690000       0.25860000
C        1.02070000       3.37550000       0.05280000
C        2.48600000       3.46560000      -0.35170000
C        2.50430000       1.89970000      -0.23890000
N        1.08990000       1.97850000       0.16440000
H       -1.59990000       2.01710000      -0.91020000
H       -2.06670000       1.40200000       0.66910000
H       -2.04020000       3.97150000       0.47370000
H       -1.10170000       3.34170000       1.81730000
H        2.65760000       3.85790000      -1.35530000
H        3.12550000       3.99440000       0.35700000
H        2.65470000       1.36030000      -1.17700000
H        3.15660000       1.48620000       0.53300000
