19
Properties=species:S:1:pos:R:3 gdb_83378=T pbc="F F F"
C       -0.07010000       1.62200000       0.07330000
C        0.02940000       0.10680000       0.04690000
C        1.13410000      -0.62960000      -0.75590000
C        2.40100000      -0.01380000      -0.05370000
O        1.99750000       0.04110000       1.36440000
C        0.77390000      -0.64840000       1.21720000
C       -0.10880000      -1.59510000       2.02090000
O       -0.25350000      -2.37980000       0.78420000
C        0.98850000      -1.80180000       0.25400000
H        0.82950000       2.08470000       0.48640000
H       -0.23400000       2.02250000      -0.93340000
H       -0.91590000       1.93980000       0.69210000
H       -0.93940000      -0.35350000      -0.14220000
H        1.17910000      -0.69310000      -1.84540000
H        3.29540000      -0.63990000      -0.14420000
H        2.62550000       0.99490000      -0.40760000
H        0.41020000      -2.17360000       2.79440000
H       -1.07150000      -1.22900000       2.38920000
H        1.81400000      -2.51190000       0.35250000
