15
Properties=species:S:1:pos:R:3 gdb_28085=T pbc="F F F"
O        0.36300000       1.28290000       0.13640000
C        0.13610000      -0.04530000      -0.00340000
C        0.06440000      -0.87820000      -1.09580000
C       -0.19640000      -2.17660000      -0.56680000
O       -0.37300000      -3.28330000      -1.35990000
C        0.25460000      -4.42720000      -0.99210000
N       -0.03610000      -5.51030000      -1.56760000
C       -0.27620000      -2.10360000       0.80110000
N       -0.06140000      -0.77150000       1.13020000
H        0.47200000       1.66750000      -0.73850000
H        0.18670000      -0.61650000      -2.13390000
H        0.99300000      -4.26490000      -0.19710000
H        0.54640000      -6.26070000      -1.20170000
H       -0.50050000      -2.84420000       1.54820000
H       -0.06600000      -0.38080000       2.05580000
