15
Properties=species:S:1:pos:R:3 gdb_124243=T pbc="F F F"
C       -0.00090000       1.52260000      -0.06390000
C        0.00120000       0.01420000       0.05070000
O        0.00440000      -0.56100000       1.12280000
C       -0.00070000      -0.74820000      -1.21180000
C        0.00050000      -2.10930000      -1.42390000
C        0.00280000      -3.26660000      -0.49490000
O       -0.00120000      -2.33000000      -2.72550000
N       -0.00430000      -1.00950000      -3.37170000
N       -0.00370000      -0.16090000      -2.46090000
H        0.87260000       1.86480000      -0.62820000
H       -0.88110000       1.86230000      -0.61930000
H        0.00330000       1.95580000       0.93630000
H       -0.88710000      -3.88330000      -0.65720000
H        0.87780000      -3.89800000      -0.67910000
H        0.01710000      -2.90130000       0.53080000
