20
Properties=species:S:1:pos:R:3 gdb_106987=T pbc="F F F"
C       -0.00250000       1.55550000       0.26370000
C        0.04000000       0.04090000       0.01480000
C       -1.33630000      -0.54280000      -0.13730000
C       -2.21740000      -1.02500000       1.02230000
C       -1.86090000      -1.96550000      -0.09250000
N       -2.67870000      -1.69910000      -1.27920000
C       -3.99620000      -2.21670000      -1.58370000
C       -2.27730000      -0.36070000      -1.33110000
O       -2.60730000       0.54290000      -2.05240000
H        1.00790000       1.96970000       0.33100000
H       -0.52990000       2.06210000      -0.54950000
H       -0.52650000       1.78490000       1.19720000
H        0.62120000      -0.16550000      -0.89240000
H        0.56110000      -0.46240000       0.83870000
H       -1.68720000      -1.15820000       1.96240000
H       -3.24020000      -0.67450000       1.12950000
H       -1.30380000      -2.88790000       0.01050000
H       -4.65500000      -2.22070000      -0.70390000
H       -4.43720000      -1.57350000      -2.34920000
H       -3.93480000      -3.23620000      -1.97730000
