23
Properties=species:S:1:pos:R:3 gdb_59060=T pbc="F F F"
C       -0.59370000       0.79360000      -2.50330000
C       -0.27450000      -0.37210000      -1.56360000
O        0.77500000      -0.02770000      -0.65560000
C       -1.50690000      -0.84750000      -0.82080000
C       -2.39700000      -2.00480000      -1.27580000
C       -2.16870000      -2.78820000      -2.55130000
C       -1.53880000      -2.12560000      -0.03210000
C       -0.34560000      -3.05050000       0.05310000
O       -2.21030000      -1.97590000       1.19990000
H        0.31530000       1.13530000      -3.00540000
H       -1.32650000       0.49830000      -3.26150000
H       -1.01370000       1.63760000      -1.94270000
H        0.14990000      -1.18810000      -2.15710000
H        0.40850000       0.58610000      -0.00960000
H       -2.05290000      -0.03700000      -0.33960000
H       -3.44760000      -1.84530000      -1.04560000
H       -1.11070000      -2.96550000      -2.75800000
H       -2.65710000      -3.76780000      -2.49780000
H       -2.58730000      -2.26110000      -3.41630000
H        0.17740000      -3.15160000      -0.89980000
H        0.36820000      -2.67150000       0.78900000
H       -0.66290000      -4.05430000       0.36300000
H       -2.59300000      -2.83020000       1.43040000
