18
Properties=species:S:1:pos:R:3 gdb_61293=T pbc="F F F"
N        0.53390000       0.13880000       0.90850000
C       -0.11590000       0.24100000      -0.28130000
O        0.16460000       1.06700000      -1.12940000
C       -1.26960000      -0.75110000      -0.47920000
C       -1.01430000      -2.18340000      -0.00970000
O       -0.98050000      -2.17710000       1.41570000
C       -2.11550000      -3.14670000      -0.51040000
C       -1.92820000      -4.48450000       0.03820000
C       -1.71770000      -5.55530000       0.54480000
H        1.28990000       0.77650000       1.09390000
H        0.27390000      -0.56940000       1.57800000
H       -2.15080000      -0.36790000       0.05100000
H       -1.49450000      -0.74080000      -1.54770000
H       -0.04920000      -2.53440000      -0.40570000
H       -0.87300000      -3.09210000       1.70540000
H       -3.09470000      -2.75430000      -0.20980000
H       -2.10050000      -3.17930000      -1.60620000
H       -1.55940000      -6.51920000       0.96230000
