22
Properties=species:S:1:pos:R:3 gdb_104765=T pbc="F F F"
C        0.93070000       0.48560000       1.22900000
C        0.07370000      -0.19880000       0.15590000
C        0.84810000      -0.57110000      -1.11630000
C        0.76760000       0.42790000      -2.26730000
C        1.31380000       1.82710000      -1.95280000
N        2.10940000      -1.27810000      -0.90170000
C        1.00100000      -2.01330000      -1.54570000
C        0.45000000      -3.15550000      -0.76660000
O       -0.19180000      -4.05150000      -1.25710000
H        1.77120000      -0.15580000       1.50520000
H        1.33960000       1.43930000       0.88400000
H        0.33460000       0.68320000       2.12510000
H       -0.38300000      -1.09060000       0.59390000
H       -0.76270000       0.44940000      -0.13070000
H        1.31340000       0.01460000      -3.12500000
H       -0.27960000       0.51150000      -2.58460000
H        2.35330000       1.78560000      -1.61110000
H        1.28130000       2.45570000      -2.84790000
H        0.72640000       2.32840000      -1.17850000
H        2.80440000      -1.01690000      -1.59720000
H        1.02930000      -2.19500000      -2.61780000
H        0.68910000      -3.12880000       0.31860000
