18
Properties=species:S:1:pos:R:3 gdb_23403=T pbc="F F F"
O       -0.14960000       1.32220000       0.03920000
N       -0.00830000      -0.08040000       0.00270000
C       -1.13120000      -0.66030000       0.00580000
C       -1.41260000      -2.14450000       0.00490000
C       -2.26740000      -2.25800000       1.29890000
C       -3.07980000      -0.91350000       1.30690000
C       -2.58200000      -0.22240000       0.02170000
O       -3.11430000      -0.94140000      -1.10480000
C       -2.38090000      -2.18550000      -1.19370000
H        0.76720000       1.61670000       0.01080000
H       -0.55770000      -2.81380000      -0.06610000
H       -2.91360000      -3.13970000       1.27650000
H       -1.62350000      -2.33750000       2.17820000
H       -4.15980000      -1.06900000       1.25570000
H       -2.85930000      -0.31150000       2.19350000
H       -2.80170000       0.83570000      -0.09160000
H       -1.84940000      -2.22480000      -2.15260000
H       -3.08150000      -3.02770000      -1.14310000
