18
Properties=species:S:1:pos:R:3 gdb_67328=T pbc="F F F"
C       -0.05000000       1.41460000       0.35540000
C       -0.00600000      -0.07080000       0.11950000
C        0.80020000      -0.89390000      -0.94210000
C        2.03230000      -1.05680000      -0.04990000
C        0.82040000      -1.16790000       0.87810000
N        0.04830000      -2.01660000      -0.17490000
C       -1.15450000      -1.06480000      -0.04050000
C       -2.05430000      -1.38750000       1.12270000
O       -2.05200000      -0.78410000       2.16830000
H        0.95830000       1.83580000       0.43140000
H       -0.56680000       1.92790000      -0.46310000
H       -0.58500000       1.63180000       1.28440000
H        0.71880000      -0.83430000      -2.02970000
H        2.61430000      -1.97040000      -0.19470000
H        2.67490000      -0.18240000       0.07510000
H        0.77080000      -1.42130000       1.93670000
H       -1.74110000      -1.02900000      -0.96980000
H       -2.73180000      -2.25640000       0.96170000
