16
Properties=species:S:1:pos:R:3 gdb_22931=T pbc="F F F"
O       -0.24520000       1.36500000       0.12690000
N       -0.02370000      -0.01560000      -0.04350000
C       -1.12020000      -0.64190000      -0.16810000
C       -2.59480000      -0.32200000       0.03710000
C       -2.85370000      -1.83440000       0.15430000
C       -2.42610000      -2.52150000      -1.09590000
O       -2.69010000      -1.93220000      -2.33550000
C       -1.31140000      -2.10990000      -0.18330000
O       -0.39250000      -3.03460000       0.23910000
H        0.65200000       1.70510000       0.20980000
H       -2.75530000       0.23430000       0.96370000
H       -3.09840000       0.18360000      -0.78850000
H       -3.49410000      -2.30330000       0.88980000
H       -2.57130000      -3.60350000      -1.06300000
H       -1.95950000      -2.13820000      -2.92830000
H        0.13060000      -2.62580000       0.94010000
