25
Properties=species:S:1:pos:R:3 gdb_100691=T pbc="F F F"
C       -0.11630000       1.38940000       0.08750000
O        0.08610000       0.00110000      -0.02530000
C        0.70430000      -0.60920000       1.10160000
C       -0.25740000      -0.73300000       2.28550000
C        1.27870000      -1.96830000       0.61350000
C        0.16060000      -2.89860000       0.12070000
C        2.30350000      -1.70920000      -0.50060000
O        1.91990000      -2.47870000       1.79140000
C        2.55910000      -3.73040000       1.69690000
H        0.82150000       1.91880000       0.31840000
H       -0.48850000       1.73970000      -0.87880000
H       -0.85580000       1.64890000       0.85860000
H        1.57070000      -0.00250000       1.41260000
H        0.20430000      -1.32740000       3.07550000
H       -0.50160000       0.25090000       2.69610000
H       -1.19180000      -1.21150000       1.97850000
H       -0.45800000      -2.36960000      -0.60780000
H        0.56530000      -3.79140000      -0.36440000
H       -0.47560000      -3.21870000       0.95020000
H        3.14420000      -1.12530000      -0.11240000
H        2.69390000      -2.64270000      -0.91570000
H        1.83360000      -1.14730000      -1.30950000
H        2.96780000      -3.94380000       2.68830000
H        1.86700000      -4.54040000       1.42820000
H        3.38860000      -3.73040000       0.97620000
