15
Properties=species:S:1:pos:R:3 gdb_75706=T pbc="F F F"
O        0.06110000       1.34150000      -0.16000000
C        0.01690000      -0.07560000      -0.04000000
C        0.62500000      -0.53370000       1.30290000
O        1.80670000      -0.66180000       1.50880000
C       -0.48340000      -0.79950000       2.27000000
C       -1.46560000       0.34050000       2.41900000
C       -1.79860000      -0.79020000       1.47650000
C       -1.45690000      -0.53280000       0.04200000
O       -2.17190000      -0.73280000      -0.90460000
H        0.98990000       1.60020000      -0.11600000
H        0.51500000      -0.57490000      -0.88100000
H       -0.30700000      -1.46720000       3.10360000
H       -2.02350000       0.36710000       3.34780000
H       -1.21090000       1.30690000       2.00240000
H       -2.62060000      -1.45700000       1.70350000
