18
Properties=species:S:1:pos:R:3 gdb_50409=T pbc="F F F"
O        0.73020000      -0.21960000       0.21230000
C        0.37370000       0.91120000      -0.00680000
C        1.30330000       2.09450000      -0.11100000
C        0.87600000       3.14630000      -1.16980000
C        1.04260000       4.47040000      -0.46040000
C        1.30580000       4.31960000       0.83510000
C        1.36470000       2.88580000       1.22580000
C        0.80650000       2.37030000       2.51430000
N        2.25920000       2.47440000       2.31440000
H       -0.70760000       1.16340000      -0.11100000
H        2.30560000       1.71200000      -0.32800000
H        1.47880000       3.07190000      -2.08110000
H       -0.16840000       2.99870000      -1.48230000
H        0.92940000       5.41810000      -0.97370000
H        1.45100000       5.10870000       1.56290000
H        0.38970000       3.06800000       3.23620000
H        0.35260000       1.38320000       2.52510000
H        2.64590000       1.55370000       2.11460000
