17
Properties=species:S:1:pos:R:3 gdb_29813=T pbc="F F F"
C       -0.02180000       1.43200000       0.02790000
N       -0.01730000      -0.01960000       0.02250000
C       -0.04670000      -0.78420000      -1.10970000
C       -0.02830000      -2.13000000      -0.75070000
N       -0.12180000      -3.22400000      -1.62520000
C        0.01310000      -2.16990000       0.65420000
C        0.01960000      -0.85590000       1.12170000
C        0.06260000      -0.38440000       2.48770000
O        0.09990000      -1.10740000       3.46540000
H        0.87900000       1.83140000       0.50330000
H       -0.05090000       1.78200000      -1.00510000
H       -0.89890000       1.82500000       0.55060000
H       -0.08390000      -0.32420000      -2.08530000
H        0.29560000      -3.04860000      -2.52980000
H        0.27800000      -4.06620000      -1.23320000
H        0.03380000      -3.04150000       1.29010000
H        0.05930000       0.72300000       2.60600000
