21
Properties=species:S:1:pos:R:3 gdb_72792=T pbc="F F F"
C       -0.04890000       1.53980000      -0.07170000
C        0.05730000       0.02020000       0.03580000
C        0.81960000      -0.61960000      -1.12200000
C        2.33010000      -0.45860000      -0.82960000
C        2.78610000      -1.10180000       0.50550000
C        1.71550000      -1.12060000       1.57120000
C        0.53930000      -0.55800000       1.34280000
C       -0.90360000      -0.75240000       1.73160000
O       -1.27690000      -0.52230000       0.34320000
H        0.92480000       2.00470000      -0.25200000
H       -0.71280000       1.79530000      -0.90430000
H       -0.46690000       1.97100000       0.84200000
H        0.54840000      -1.67930000      -1.17250000
H        0.57110000      -0.16260000      -2.08650000
H        2.91310000      -0.88700000      -1.65090000
H        2.57200000       0.61010000      -0.81650000
H        3.08030000      -2.14650000       0.32920000
H        3.69870000      -0.60530000       0.86070000
H        1.90140000      -1.71060000       2.46610000
H       -1.19250000      -1.74850000       2.08520000
H       -1.34190000       0.00530000       2.39650000
