23
Properties=species:S:1:pos:R:3 gdb_89053=T pbc="F F F"
C       -0.23090000       1.48090000      -0.02920000
C        0.02950000      -0.00700000       0.08200000
C        1.41950000      -0.57570000      -0.06240000
C        0.71260000      -0.65170000       1.26960000
C        1.20860000       0.13830000       2.44990000
O        2.25090000      -0.60110000       3.07410000
C        2.75920000       0.02130000       4.20940000
C        2.05910000      -0.16610000       5.53320000
C        3.37060000      -0.87010000       5.23940000
H        0.60340000       2.07540000       0.35370000
H       -0.37750000       1.76620000      -1.07690000
H       -1.13090000       1.77550000       0.52240000
H       -0.76350000      -0.61260000      -0.35010000
H        1.56450000      -1.48800000      -0.63030000
H        2.23980000       0.13140000      -0.14360000
H        0.33500000      -1.63070000       1.55230000
H        1.58660000       1.12420000       2.13740000
H        0.39610000       0.31740000       3.17220000
H        3.22860000       0.98860000       4.02010000
H        2.05060000       0.65320000       6.24390000
H        1.16390000      -0.77810000       5.53080000
H        3.32420000      -1.93450000       5.03970000
H        4.27040000      -0.53870000       5.74500000
