13
Properties=species:S:1:pos:R:3 gdb_49205=T pbc="F F F"
N       -0.02520000       1.32390000       0.01180000
C        0.01710000       0.06140000       0.00380000
N        1.12260000      -0.80690000      -0.00810000
C        0.70680000      -2.10990000      -0.01340000
C       -0.65060000      -2.24400000      -0.00610000
C       -1.33830000      -3.53050000      -0.00960000
O       -2.53490000      -3.69580000      -0.00470000
C       -1.21920000      -0.87700000       0.00510000
O       -2.35940000      -0.49720000       0.01440000
H        0.90490000       1.75020000       0.00900000
H        2.08480000      -0.51210000      -0.01200000
H        1.44190000      -2.90590000      -0.02250000
H       -0.63720000      -4.40030000      -0.02010000
