17
Properties=species:S:1:pos:R:3 gdb_46467=T pbc="F F F"
N       -0.11110000       1.29780000      -0.01710000
C       -0.00140000       0.02820000      -0.02230000
N        1.10040000      -0.79220000      -0.03880000
C        0.84550000      -2.22830000      -0.04160000
C       -0.67550000      -2.30370000      -0.02100000
C       -1.47910000      -3.35860000      -0.75860000
C       -1.45860000      -3.36280000       0.73260000
C       -1.20420000      -0.90520000      -0.00950000
O       -2.36340000      -0.57990000       0.00670000
H        0.80360000       1.75550000      -0.02760000
H        2.03670000      -0.42400000      -0.05140000
H        1.27040000      -2.70320000      -0.93600000
H        1.29480000      -2.71090000       0.83660000
H       -2.37750000      -3.00570000      -1.25330000
H       -0.91840000      -4.12090000      -1.28920000
H       -0.88360000      -4.12800000       1.24330000
H       -2.34310000      -3.01280000       1.25380000
