18
Properties=species:S:1:pos:R:3 gdb_52427=T pbc="F F F"
N       -0.28140000       1.29830000      -0.24720000
C       -0.20200000       0.04320000      -0.33200000
O       -1.25970000      -0.72060000       0.01450000
C       -1.07060000      -2.13750000      -0.00910000
C       -2.44780000      -2.77430000       0.02980000
N       -3.19360000      -2.41920000      -1.17080000
C       -4.55500000      -2.93720000      -1.16070000
C       -5.27450000      -2.55620000      -2.37960000
N       -5.85240000      -2.24490000      -3.32970000
H        0.58780000       1.72530000      -0.56030000
H        0.66330000      -0.53850000      -0.67860000
H       -0.54650000      -2.43430000      -0.92580000
H       -0.48130000      -2.45240000       0.86130000
H       -2.32610000      -3.86430000       0.06560000
H       -2.95480000      -2.47180000       0.96380000
H       -3.21150000      -1.40740000      -1.25600000
H       -4.51710000      -4.03320000      -1.11540000
H       -5.15760000      -2.61060000      -0.29310000
