20
Properties=species:S:1:pos:R:3 gdb_66564=T pbc="F F F"
C       -0.09000000       1.46610000       0.04810000
C        0.05550000      -0.02180000       0.05490000
C        0.28420000      -1.00070000      -1.03800000
C        0.63360000      -2.06080000       0.03240000
C       -0.86980000      -2.09930000       0.43570000
C       -0.54600000      -1.59270000       1.84790000
C        0.67520000      -0.93290000       1.15170000
C        1.92080000      -0.48680000       1.87110000
N       -1.08530000      -0.86900000      -0.43760000
H        0.88540000       1.96260000       0.09530000
H       -0.59830000       1.79220000      -0.86370000
H       -0.68660000       1.80620000       0.90270000
H        0.47900000      -0.88780000      -2.09850000
H        1.32380000      -2.89980000      -0.01590000
H       -1.57130000      -2.90490000       0.22280000
H       -1.27670000      -0.95350000       2.35340000
H       -0.24010000      -2.41170000       2.50780000
H        2.32780000      -1.28820000       2.49660000
H        2.70050000      -0.18590000       1.16170000
H        1.71720000       0.37170000       2.52230000
