16
Properties=species:S:1:pos:R:3 gdb_123466=T pbc="F F F"
C        0.11410000       1.31400000       0.64820000
C       -0.03800000      -0.07230000       0.05810000
C       -1.33330000      -0.57680000      -0.41020000
O       -0.34110000      -0.13170000      -1.33890000
C        1.41340000       1.95430000       0.25810000
N        2.24400000       2.38420000       1.17940000
O        3.33190000       2.91530000       0.49230000
C        3.11700000       2.78160000      -0.82490000
C        1.92370000       2.18230000      -1.05530000
H       -0.72010000       1.93440000       0.30090000
H        0.06150000       1.26350000       1.74040000
H        0.71120000      -0.79780000       0.37740000
H       -1.53000000      -1.64760000      -0.41440000
H       -2.21540000       0.05720000      -0.32900000
H        3.89830000       3.15760000      -1.46750000
H        1.46480000       1.92410000      -1.99420000
