20
Properties=species:S:1:pos:R:3 gdb_62056=T pbc="F F F"
O        0.12900000       1.48780000       0.10790000
C        0.02680000       0.07970000      -0.01350000
C        0.63860000      -0.46790000      -1.31450000
C       -0.02020000       0.12560000      -2.56600000
C        0.60240000      -0.38670000      -3.84710000
C        0.15940000      -1.70150000      -4.44120000
C       -0.18620000      -0.40360000      -5.13050000
C        0.61870000      -0.59390000       1.16240000
N        1.11490000      -1.10750000       2.07110000
H        1.06390000       1.71760000       0.16650000
H       -1.04990000      -0.12700000      -0.00720000
H        1.71560000      -0.25260000      -1.31140000
H        0.54310000      -1.55980000      -1.31580000
H       -1.09140000      -0.11850000      -2.56030000
H        0.04460000       1.21860000      -2.52190000
H        1.66120000      -0.15870000      -3.94900000
H        0.90370000      -2.34630000      -4.89490000
H       -0.64380000      -2.23600000      -3.94330000
H       -1.21870000      -0.07140000      -5.09480000
H        0.32530000      -0.15790000      -6.05440000
