21
Properties=species:S:1:pos:R:3 gdb_58869=T pbc="F F F"
C       -0.12890000       1.55960000       0.24750000
C        0.00950000       0.04330000       0.01600000
C        0.79920000      -0.63300000       1.14350000
C       -1.35110000      -0.56800000      -0.16870000
O       -2.20830000      -0.71500000       0.98660000
C       -1.96170000      -1.87050000       0.15910000
C       -2.95180000      -1.79170000      -1.00170000
C       -2.34500000      -0.37410000      -1.33920000
O       -3.17970000       0.74850000      -1.26030000
H        0.85450000       2.03870000       0.27600000
H       -0.72180000       2.03020000      -0.54190000
H       -0.62900000       1.75430000       1.20210000
H        0.54870000      -0.10880000      -0.92980000
H        0.96590000      -1.69450000       0.93460000
H        1.77660000      -0.15680000       1.26630000
H        0.25730000      -0.55420000       2.09030000
H       -1.53900000      -2.73840000       0.65150000
H       -2.77250000      -2.52680000      -1.79030000
H       -4.00780000      -1.80070000      -0.72030000
H       -1.86250000      -0.35030000      -2.31980000
H       -3.49550000       0.77420000      -0.34740000
