20
Properties=species:S:1:pos:R:3 gdb_79091=T pbc="F F F"
C       -0.14330000       1.55800000      -0.04180000
C        0.03600000       0.05330000       0.04720000
N        1.24490000      -0.56180000      -0.67420000
C        2.11460000      -0.17280000       0.56290000
C        3.12810000      -1.28720000       0.70100000
C        2.40120000      -2.38190000       0.46910000
C        1.02120000      -1.81890000       0.21720000
C        0.76290000      -0.63770000       1.21920000
C        0.40320000      -0.70720000       2.68080000
H        0.72500000       2.11910000       0.31310000
H       -0.33030000       1.85210000      -1.07980000
H       -1.00780000       1.87130000       0.55360000
H       -0.89070000      -0.44430000      -0.26740000
H        2.44890000       0.86240000       0.60820000
H        4.18250000      -1.17810000       0.91070000
H        2.69050000      -3.42240000       0.43620000
H        0.20350000      -2.47080000      -0.09590000
H        1.14600000      -1.29490000       3.23160000
H        0.36290000       0.29270000       3.12670000
H       -0.57630000      -1.17690000       2.82350000
