24
Properties=species:S:1:pos:R:3 gdb_105078=T pbc="F F F"
C       -0.44490000       1.04410000       1.40180000
C       -0.26900000      -0.40120000       0.92270000
C        0.52640000      -0.62170000      -0.36630000
C        0.39780000       0.35280000      -1.52330000
C        1.65880000       0.32920000      -0.70290000
C        0.79110000      -2.06310000      -0.76790000
C        0.16480000      -3.24580000      -0.10510000
N       -0.16010000      -2.92560000      -1.48810000
C       -1.50360000      -2.44580000      -1.77250000
H        0.51000000       1.51820000       1.64640000
H       -0.95350000       1.66910000       0.66110000
H       -1.05500000       1.05890000       2.31010000
H        0.21870000      -0.97600000       1.72050000
H       -1.26680000      -0.84280000       0.80920000
H        0.43370000      -0.05660000      -2.52690000
H       -0.26420000       1.20470000      -1.41750000
H        1.85010000       1.16560000      -0.04190000
H        2.55370000      -0.09170000      -1.14940000
H        1.80200000      -2.20930000      -1.14640000
H        0.73710000      -4.15670000       0.05710000
H       -0.59440000      -3.05730000       0.65150000
H       -1.94800000      -1.81300000      -0.98980000
H       -1.49550000      -1.87230000      -2.70450000
H       -2.15760000      -3.31220000      -1.91720000
