17
Properties=species:S:1:pos:R:3 gdb_60954=T pbc="F F F"
C       -0.16170000       1.65970000       0.02460000
C        0.05930000       0.14520000      -0.06510000
C        1.08560000      -0.32340000       0.96490000
O        1.70300000      -1.35390000       0.87520000
C       -1.25730000      -0.61720000       0.10220000
C       -1.25740000      -2.15390000       0.20270000
C       -1.83180000      -1.90320000       1.59540000
O       -2.22620000      -2.53070000       2.52140000
O       -1.77540000      -0.52860000       1.47910000
H        0.78010000       2.20440000      -0.09130000
H       -0.84510000       2.00130000      -0.75800000
H       -0.59560000       1.92880000       0.99260000
H        0.45600000      -0.13080000      -1.05030000
H        1.23190000       0.35850000       1.83100000
H       -2.00680000      -0.21420000      -0.58540000
H       -1.92420000      -2.68680000      -0.47640000
H       -0.27180000      -2.62110000       0.21230000
