20
Properties=species:S:1:pos:R:3 gdb_109110=T pbc="F F F"
C        0.04410000       1.56590000       0.06830000
C       -0.00060000       0.02930000      -0.02910000
C       -1.38880000      -0.53220000      -0.04670000
C       -2.10500000      -0.95700000      -1.09710000
C       -3.46580000      -1.38850000      -0.63020000
C       -3.40670000      -1.16240000       0.88400000
O       -4.25870000      -1.38920000       1.71580000
N       -2.14810000      -0.63840000       1.14530000
C       -1.69630000      -0.37950000       2.49440000
H        1.07910000       1.92070000       0.05610000
H       -0.48450000       2.01820000      -0.77580000
H       -0.42350000       1.93030000       0.98750000
H        0.49710000      -0.28750000      -0.95090000
H        0.57180000      -0.40730000       0.79850000
H       -1.75970000      -0.97370000      -2.12000000
H       -4.28900000      -0.80090000      -1.05440000
H       -3.69950000      -2.44060000      -0.83160000
H       -2.52790000      -0.63190000       3.15500000
H       -0.83160000      -0.99890000       2.75830000
H       -1.43120000       0.67250000       2.64280000
