16
Properties=species:S:1:pos:R:3 gdb_9823=T pbc="F F F"
C       -0.19970000       1.49870000      -0.72570000
C       -0.10600000       0.18450000       0.01030000
C        0.89030000      -0.83780000      -0.38640000
O        1.08190000      -0.05280000       0.78220000
C       -1.37190000      -0.30430000       0.66140000
O       -2.46420000      -0.01330000       0.21790000
C       -1.27240000      -1.14500000       1.92580000
O       -2.53470000      -1.58400000       2.33060000
H        0.75190000       1.73430000      -1.20700000
H       -0.98820000       1.44720000      -1.48010000
H       -0.45030000       2.30860000      -0.03400000
H        0.69500000      -1.89580000      -0.22050000
H        1.54760000      -0.60950000      -1.22410000
H       -0.59480000      -1.99530000       1.76190000
H       -0.78390000      -0.52000000       2.69230000
H       -3.16240000      -1.13990000       1.73840000
