20
Properties=species:S:1:pos:R:3 gdb_93151=T pbc="F F F"
C       -0.00050000       1.58310000      -0.02060000
C        0.09120000       0.04860000       0.00610000
C        0.66040000      -0.49250000      -1.32370000
C        0.58680000      -1.99080000      -1.44650000
C        1.34090000      -2.78710000      -0.69420000
C        2.32610000      -2.20760000       0.29150000
N        1.71430000      -1.39110000       1.34100000
C        0.78820000      -0.38260000       1.31240000
O        0.48350000       0.17070000       2.35770000
H        0.98530000       2.03040000      -0.19210000
H       -0.66370000       1.91200000      -0.82640000
H       -0.38030000       1.95230000       0.93190000
H       -0.92890000      -0.34500000       0.11530000
H        0.10670000      -0.02010000      -2.14100000
H        1.70120000      -0.15380000      -1.42810000
H       -0.13100000      -2.41360000      -2.14420000
H        1.26810000      -3.86770000      -0.76630000
H        2.85890000      -3.01140000       0.80460000
H        3.09140000      -1.62900000      -0.24930000
H        2.06050000      -1.53090000       2.27940000
