19
Properties=species:S:1:pos:R:3 gdb_117145=T pbc="F F F"
C       -0.15070000       1.19300000       0.25460000
O       -0.14040000      -0.21200000       0.15200000
C        0.56230000      -0.65520000      -0.96670000
C        0.53700000      -2.17780000      -1.02380000
N       -0.07570000      -2.81940000      -0.11750000
N        1.21780000      -2.77480000      -2.11210000
C        1.22860000      -4.23200000      -2.21420000
C        1.88000000      -2.06260000      -3.09720000
O        2.46360000      -2.56430000      -4.03060000
H        0.86670000       1.60520000       0.34870000
H       -0.63280000       1.66460000      -0.61660000
H       -0.71890000       1.44350000       1.15270000
H        0.12320000      -0.24610000      -1.89500000
H        1.61080000      -0.30680000      -0.93680000
H       -0.02910000      -3.82750000      -0.25290000
H        0.20990000      -4.62120000      -2.30770000
H        1.79820000      -4.48920000      -3.10500000
H        1.70450000      -4.67780000      -1.33520000
H        1.83130000      -0.97400000      -2.95860000
