18
Properties=species:S:1:pos:R:3 gdb_62979=T pbc="F F F"
C       -0.08820000       1.57060000      -0.15910000
C       -0.00510000       0.05330000      -0.05750000
N       -1.26220000      -0.62370000       0.25660000
C        0.68890000      -0.68430000      -1.22180000
N        2.06880000      -0.16120000      -1.29530000
C        1.73990000      -1.23440000      -0.33410000
C        1.12740000      -0.55230000       0.89870000
C        1.96900000       0.35090000       1.66570000
N        2.62190000       1.07210000       2.29060000
H        0.87600000       2.00030000      -0.43820000
H       -0.82890000       1.85340000      -0.91600000
H       -0.39630000       2.00700000       0.79740000
H       -1.65120000      -0.23360000       1.11260000
H       -1.94240000      -0.41860000      -0.47250000
H        0.19890000      -1.13290000      -2.07720000
H        2.52680000      -0.59700000      -2.09440000
H        2.25220000      -2.18720000      -0.34920000
H        0.65770000      -1.28090000       1.56230000
