17
Properties=species:S:1:pos:R:3 gdb_103312=T pbc="F F F"
C        0.02350000       1.67230000       0.39620000
C       -0.07770000       0.20210000       0.00490000
C       -1.46560000      -0.11530000      -0.55550000
O       -1.62190000      -1.42890000      -1.06140000
C        1.18100000      -0.38690000      -0.71530000
O        1.92340000      -0.28230000       0.57540000
C        0.59340000      -0.79600000       1.00380000
C        0.83370000      -1.79630000      -0.16870000
O        0.96900000      -2.95340000      -0.38820000
H        1.01020000       1.90020000       0.80030000
H       -0.15520000       2.31570000      -0.47200000
H       -0.72880000       1.92310000       1.15200000
H       -2.22190000       0.11740000       0.20960000
H       -1.65780000       0.55480000      -1.40150000
H       -1.76560000      -2.04060000      -0.33310000
H        1.69500000      -0.05960000      -1.61710000
H        0.43630000      -0.93850000       2.07240000
