13
Properties=species:S:1:pos:R:3 gdb_23991=T pbc="F F F"
C        0.14830000      -1.17540000      -0.00480000
C        0.04120000       0.02480000       0.00270000
C       -0.08370000       1.42480000       0.01150000
C       -1.18710000       2.26500000       0.03120000
N       -0.81100000       3.57010000       0.03250000
C        0.51740000       3.56180000       0.01380000
N        0.99810000       2.28110000       0.00060000
C        1.37360000       4.68470000       0.00740000
C        2.12460000       5.62530000       0.00160000
H        0.23480000      -2.23370000      -0.01130000
H       -2.22500000       1.97010000       0.04430000
H        1.96720000       2.00760000      -0.01440000
H        2.77580000       6.46430000      -0.00330000
