20
Properties=species:S:1:pos:R:3 gdb_47596=T pbc="F F F"
O        0.04480000      -0.09070000      -0.18870000
C        0.00620000       1.11960000      -0.15660000
C       -1.32350000       1.88110000      -0.14560000
N       -1.30240000       3.17840000      -0.82350000
C       -0.23750000       4.03680000      -0.30490000
C        1.17970000       3.47360000      -0.50890000
C        2.16410000       3.78740000       0.65250000
C        1.81940000       2.40710000       1.27420000
C        1.26240000       1.96290000      -0.12340000
H       -2.08790000       1.23280000      -0.58210000
H       -1.61140000       2.04880000       0.90330000
H       -1.17620000       3.03810000      -1.82220000
H       -0.31910000       5.02560000      -0.76890000
H       -0.43550000       4.17950000       0.76600000
H        1.52930000       3.70900000      -1.51910000
H        3.20200000       3.82970000       0.31210000
H        1.95840000       4.67850000       1.25220000
H        2.63480000       1.80700000       1.68100000
H        1.03290000       2.47580000       2.03070000
H        2.04180000       1.43380000      -0.67770000
