20
Properties=species:S:1:pos:R:3 gdb_65343=T pbc="F F F"
C       -0.09930000       1.55490000      -0.06520000
C        0.01290000       0.03960000       0.00490000
C        1.35540000      -0.63870000      -0.24820000
C        0.78070000      -0.65510000       1.13850000
C        1.39050000       0.11460000       2.26540000
C        0.68740000       0.18710000       3.60040000
C        1.94470000      -0.63100000       3.45760000
C       -1.15550000      -0.65930000      -0.47040000
N       -2.09970000      -1.21420000      -0.84530000
H        0.82290000       2.02970000       0.27540000
H       -0.28600000       1.87890000      -1.09330000
H       -0.92040000       1.91770000       0.56000000
H        1.36620000      -1.55640000      -0.82410000
H        2.18860000       0.02860000      -0.44420000
H        0.34180000      -1.60070000       1.44550000
H        1.94560000       0.99970000       1.97110000
H        0.73470000       1.11720000       4.15540000
H       -0.25330000      -0.34360000       3.70230000
H        1.85100000      -1.71180000       3.46500000
H        2.85770000      -0.26220000       3.91130000
