20
Properties=species:S:1:pos:R:3 gdb_102226=T pbc="F F F"
C        0.04210000       1.62740000       0.13330000
N        0.31360000       0.19740000       0.06910000
C        0.31030000      -0.51560000      -1.10300000
N       -0.11680000      -1.86620000      -0.96230000
C       -0.64100000      -2.52610000       0.11540000
C       -1.01390000      -3.97080000      -0.16840000
O       -0.79390000      -2.02200000       1.22020000
N        0.65320000      -0.21170000      -2.29410000
C        1.29800000       1.04630000      -2.60830000
H        0.87100000       2.22680000      -0.24790000
H       -0.86710000       1.90960000      -0.41370000
H       -0.10070000       1.88930000       1.18390000
H       -0.06440000      -0.34360000       0.84250000
H       -0.01510000      -2.36270000      -1.83510000
H       -0.12710000      -4.55030000      -0.44510000
H       -1.45650000      -4.39900000       0.73000000
H       -1.72790000      -4.03740000      -0.99540000
H        0.60970000       1.90250000      -2.61180000
H        2.12410000       1.28530000      -1.92300000
H        1.71970000       0.97530000      -3.61590000
