13
Properties=species:S:1:pos:R:3 gdb_132655=T pbc="F F F"
N        0.01870000       1.35090000      -0.07850000
C       -0.00100000      -0.01770000      -0.04710000
N       -1.19570000      -0.61900000      -0.01550000
C       -1.19240000      -1.95300000      -0.04200000
C       -0.02590000      -2.70430000      -0.09530000
O       -0.04420000      -4.06520000      -0.12090000
C        1.14360000      -1.94540000      -0.10920000
F        2.30430000      -2.61000000      -0.14530000
N        1.19210000      -0.64280000      -0.08560000
H        0.88640000       1.79380000       0.17420000
H       -0.83090000       1.80940000       0.20670000
H       -2.15450000      -2.45840000      -0.01670000
H        0.86870000      -4.37500000      -0.15010000
