13
Properties=species:S:1:pos:R:3 gdb_133740=T pbc="F F F"
C        0.23070000       1.11690000      -0.59640000
O       -0.19120000       0.32070000       0.50400000
C       -1.37500000      -0.38020000       0.28020000
C       -1.21090000      -1.47410000      -0.70240000
N       -1.05310000      -2.29450000      -1.49900000
C       -1.83230000      -0.94560000       1.63810000
F       -2.05560000       0.05210000       2.49170000
F       -2.97070000      -1.62750000       1.47620000
F       -0.91960000      -1.75840000       2.16010000
H        1.13630000       1.63080000      -0.27240000
H        0.45650000       0.49920000      -1.47460000
H       -0.53440000       1.85920000      -0.86300000
H       -2.18510000       0.27730000      -0.07410000
