17
Properties=species:S:1:pos:R:3 gdb_125110=T pbc="F F F"
C       -0.05510000       1.44670000      -0.08580000
C       -0.05290000      -0.03480000       0.00170000
C       -0.99420000      -0.98370000      -0.26270000
O       -2.26250000      -0.81370000      -0.70280000
C       -0.34280000      -2.21820000       0.03100000
C       -0.96650000      -3.57620000      -0.07430000
N       -1.90960000      -3.58130000      -1.21300000
H       -2.49070000      -4.41250000      -1.18570000
H       -2.54700000      -1.70080000      -1.00290000
H       -1.39550000      -3.60910000      -2.08890000
N        0.89300000      -2.02860000       0.42710000
O        1.07900000      -0.65400000       0.42450000
H        0.75800000       1.80950000      -0.72370000
H       -1.00560000       1.77940000      -0.50860000
H        0.06590000       1.91060000       0.89960000
H       -0.18420000      -4.34430000      -0.12890000
H       -1.55380000      -3.77730000       0.83000000
