13
Properties=species:S:1:pos:R:3 gdb_21658=T pbc="F F F"
N       -0.01900000       1.34880000       0.15910000
C        0.02250000      -0.02890000       0.05180000
N       -1.07890000      -0.76830000       0.03580000
N       -0.61800000      -2.04860000      -0.00800000
C        0.72280000      -2.13490000      -0.02700000
C        1.20650000      -0.83400000       0.00820000
C        2.53850000      -0.37550000      -0.00390000
C        3.66120000       0.06430000      -0.02390000
H        0.78400000       1.81240000      -0.24130000
H       -0.89320000       1.75060000      -0.14860000
H       -1.28440000      -2.80020000      -0.02120000
H        1.24390000      -3.07790000      -0.06530000
H        4.65500000       0.43700000      -0.02740000
