17
Properties=species:S:1:pos:R:3 gdb_110083=T pbc="F F F"
N        0.35430000       1.47660000      -0.02460000
C        0.20280000       0.01950000      -0.03350000
C        0.70030000      -0.55530000       1.27570000
C        1.05220000      -2.02520000       1.39630000
C        0.89220000      -2.88730000       0.24570000
N        0.68900000      -3.60330000      -0.63890000
N        2.07170000      -0.99610000       1.45350000
C        3.11170000      -0.85480000       0.54030000
N        3.73260000      -1.85090000       0.06230000
H        1.33170000       1.73070000      -0.13440000
H       -0.13300000       1.87690000      -0.81980000
H       -0.86720000      -0.20540000      -0.11270000
H        0.69790000      -0.49430000      -0.87180000
H        0.27280000      -0.08030000       2.15650000
H        0.86240000      -2.53170000       2.33910000
H        3.35890000       0.20120000       0.37190000
H        4.51480000      -1.54620000      -0.51440000
