18
Properties=species:S:1:pos:R:3 gdb_39543=T pbc="F F F"
C        0.00770000       1.58020000       0.06440000
C        1.35980000       2.22990000      -0.06410000
C        2.47640000       1.53290000      -0.27490000
C        2.43990000       0.04260000      -0.42630000
C        1.14020000      -0.58710000      -0.96630000
C        1.36380000      -1.70170000       0.11470000
C        0.78340000      -0.74750000       1.09000000
C        0.08390000       0.05380000      -0.01510000
N        2.26910000      -0.77300000       0.84530000
H       -0.45130000       1.87140000       1.02050000
H       -0.66780000       1.97460000      -0.70950000
H        1.39700000       3.31320000       0.02410000
H        3.43720000       2.03490000      -0.34230000
H        3.33020000      -0.34450000      -0.92790000
H        0.94540000      -0.70110000      -2.03100000
H        1.46910000      -2.77780000       0.09610000
H        0.46760000      -0.90860000       2.11310000
H       -0.90280000      -0.38330000      -0.19600000
