20
Properties=species:S:1:pos:R:3 gdb_56263=T pbc="F F F"
C       -1.09430000       1.04390000       0.45830000
C       -0.03250000       0.00950000       0.17020000
O        0.76230000      -0.42340000       0.96480000
O       -0.08500000      -0.37920000      -1.12230000
C        0.88780000      -1.35930000      -1.52160000
C        0.59490000      -1.70930000      -2.97360000
N        1.57610000      -2.67520000      -3.44620000
C        1.23000000      -4.08530000      -3.28120000
C        1.20490000      -3.44700000      -4.62560000
H       -1.04960000       1.32610000       1.50930000
H       -0.93840000       1.92500000      -0.17070000
H       -2.08410000       0.64510000       0.21890000
H        1.89610000      -0.95030000      -1.41210000
H        0.81250000      -2.23660000      -0.87180000
H       -0.44360000      -2.07630000      -3.06000000
H        0.67290000      -0.80520000      -3.58780000
H        2.04530000      -4.74290000      -2.99490000
H        0.26880000      -4.32500000      -2.82840000
H        0.22740000      -3.26280000      -5.06890000
H        2.00210000      -3.62950000      -5.34040000
