16
Properties=species:S:1:pos:R:3 gdb_45123=T pbc="F F F"
O       -0.17490000       0.06590000      -0.31900000
C       -0.08840000       1.23620000      -0.05510000
C       -1.25980000       2.20190000      -0.06410000
C       -1.20480000       3.22090000       1.06080000
C       -0.61470000       2.86410000       2.38240000
N        0.07910000       3.78490000       1.48110000
C        1.28410000       3.30730000       0.81070000
C        1.29390000       1.86130000       0.31010000
O        2.30580000       1.22610000       0.16670000
H       -1.23130000       2.73120000      -1.02930000
H       -2.19190000       1.62910000      -0.04690000
H       -2.01520000       3.94670000       1.03910000
H       -0.99710000       3.30640000       3.29780000
H       -0.22210000       1.85460000       2.50770000
H        1.46100000       3.94650000      -0.06690000
H        2.14640000       3.44290000       1.47060000
