14
Properties=species:S:1:pos:R:3 gdb_29440=T pbc="F F F"
O        0.07910000       1.39040000       0.08070000
C        0.05970000       0.05080000      -0.04250000
C       -0.00140000      -0.68830000      -1.17510000
O        0.00410000      -2.02290000      -0.77470000
C        0.06750000      -1.96970000       0.55290000
N        0.09170000      -3.12080000       1.30250000
C        0.05720000      -4.44550000       0.90390000
N       -0.00610000      -4.82290000      -0.30580000
N        0.10400000      -0.77040000       1.06810000
H        0.12580000       1.58040000       1.02510000
H       -0.04950000      -0.49580000      -2.22920000
H        0.14090000      -2.93580000       2.29130000
H        0.09250000      -5.10150000       1.78170000
H       -0.01980000      -5.83950000      -0.35040000
