23
Properties=species:S:1:pos:R:3 gdb_115736=T pbc="F F F"
O       -0.13160000       1.47250000      -0.14770000
C        0.01400000       0.07960000       0.09980000
C       -1.37000000      -0.54360000       0.02190000
C       -1.94080000      -0.60060000      -1.42370000
C       -1.52720000      -2.09450000      -1.50540000
C       -1.39800000      -2.11110000       0.04630000
C       -0.28460000      -2.89470000       0.68820000
C       -0.34760000      -3.26150000       2.15230000
C       -0.51010000      -4.32990000       1.10080000
H        0.74120000       1.87500000      -0.11930000
H        0.68530000      -0.38100000      -0.64400000
H        0.45220000      -0.10480000       1.09330000
H       -2.00370000      -0.04950000       0.76420000
H       -3.02620000      -0.47150000      -1.44220000
H       -1.49850000       0.09160000      -2.14320000
H       -2.23200000      -2.79660000      -1.95770000
H       -0.55560000      -2.22860000      -1.99130000
H       -2.34980000      -2.43230000       0.48610000
H        0.70810000      -2.67610000       0.30200000
H        0.56910000      -3.24300000       2.73150000
H       -1.22890000      -2.96150000       2.71010000
H       -1.50030000      -4.74800000       0.95110000
H        0.29630000      -5.04120000       0.95990000
