14
Properties=species:S:1:pos:R:3 gdb_131938=T pbc="F F F"
C       -0.03460000       1.55120000       0.00040000
C       -0.01280000       0.05670000       0.02960000
C       -0.02680000      -0.79030000      -1.03210000
O        0.00140000      -2.10150000      -0.63250000
C        0.03430000      -2.11180000       0.70700000
C        0.02740000      -0.82720000       1.16600000
N        0.05640000      -0.47760000       2.55790000
O        0.08910000      -1.39680000       3.37040000
O        0.04670000       0.71630000       2.84320000
H        0.84770000       1.96800000       0.49330000
H       -0.06390000       1.91100000      -1.03130000
H       -0.90430000       1.94330000       0.53440000
H       -0.05510000      -0.63010000      -2.09690000
H        0.05990000      -3.06440000       1.20620000
