20
Properties=species:S:1:pos:R:3 gdb_117254=T pbc="F F F"
C       -0.84650000       0.96540000      -0.30280000
C        0.59710000       0.55420000      -0.00290000
N        1.22490000      -0.16910000      -1.09920000
C        1.34370000      -1.52760000      -1.11190000
O        0.98050000      -2.23710000      -0.18770000
C        1.97520000      -2.11650000      -2.35960000
C        3.07870000      -3.17710000      -2.11910000
O        2.37270000      -4.16480000      -2.89310000
C        1.21980000      -3.30960000      -2.99820000
H       -0.90270000       1.61410000      -1.18370000
H       -1.46560000       0.08300000      -0.48690000
H       -1.27080000       1.51260000       0.54500000
H        1.20540000       1.43590000       0.22960000
H        0.62980000      -0.11440000       0.85980000
H        1.49550000       0.34580000      -1.92110000
H        2.26430000      -1.35290000      -3.08550000
H        4.06650000      -2.95290000      -2.53680000
H        3.17070000      -3.46870000      -1.06690000
H        0.38530000      -3.66840000      -2.38480000
H        0.89480000      -3.17870000      -4.03650000
