16
Properties=species:S:1:pos:R:3 gdb_44611=T pbc="F F F"
O        0.00420000      -0.05370000      -0.13640000
C       -0.00130000       1.15220000      -0.08530000
N       -1.10560000       1.96640000       0.03820000
C       -0.80080000       3.36820000       0.00810000
C        0.13790000       3.94500000       1.06160000
C        0.72470000       2.98680000       2.09240000
O        1.61610000       2.11900000       1.38320000
C        1.22370000       2.10800000       0.00740000
C        0.66470000       3.50120000      -0.28440000
H       -2.00910000       1.59050000       0.27670000
H       -1.53600000       4.01010000      -0.46290000
H        0.05340000       4.99820000       1.30260000
H        1.30400000       3.51690000       2.85400000
H       -0.05570000       2.39960000       2.59660000
H        2.06900000       1.77340000      -0.59170000
H        1.08210000       4.15780000      -1.03490000
