16
Properties=species:S:1:pos:R:3 gdb_31434=T pbc="F F F"
N        0.22310000       1.42660000      -0.03800000
C       -0.00300000      -0.00520000       0.00780000
C       -1.43990000      -0.48920000       0.01040000
N       -2.40130000       0.38230000      -0.02700000
C       -3.71640000      -0.06790000      -0.02420000
N       -4.77830000       0.63250000      -0.05690000
N       -3.86010000      -1.47350000       0.02040000
C       -2.79340000      -2.28830000       0.05690000
N       -1.56600000      -1.87020000       0.05450000
H       -0.23980000       1.80730000      -0.85900000
H       -0.25620000       1.86120000       0.74590000
H        0.49720000      -0.48970000      -0.84110000
H        0.48060000      -0.43140000       0.89670000
H       -4.52010000       1.61760000      -0.08680000
H       -4.80600000      -1.82840000       0.02340000
H       -3.00510000      -3.35540000       0.09000000
