16
Properties=species:S:1:pos:R:3 gdb_14055=T pbc="F F F"
C        0.05150000       1.53180000      -0.13810000
O        1.31410000       1.56590000       0.55910000
C        1.44780000       0.13270000       0.48540000
C        0.00270000      -0.00950000      -0.03710000
C       -1.03650000      -0.65730000       0.89030000
O       -2.00210000      -1.17530000      -0.01070000
C       -1.24490000      -1.61380000      -1.10610000
O       -0.17590000      -0.69360000      -1.26350000
H       -0.72830000       2.09930000       0.38330000
H        0.13660000       1.88210000      -1.17420000
H        2.20130000      -0.18400000      -0.24670000
H        1.67200000      -0.31430000       1.46230000
H       -0.57290000      -1.46490000       1.48010000
H       -1.52690000       0.04360000       1.56780000
H       -0.83940000      -2.62610000      -0.92910000
H       -1.87310000      -1.60910000      -2.00150000
