15
Properties=species:S:1:pos:R:3 gdb_129610=T pbc="F F F"
N       -0.15570000       1.30480000      -0.54940000
C       -0.05220000      -0.03520000      -0.16560000
C       -1.02980000      -0.97200000       0.01570000
C       -2.51870000      -0.97870000      -0.15610000
C       -2.97610000      -0.13610000      -1.25940000
C       -3.35080000       0.56720000      -2.15940000
O       -0.48020000      -2.12040000       0.48400000
N        0.88500000      -1.95760000       0.61300000
C        1.12870000      -0.72760000       0.23240000
H        0.64520000       1.62220000      -1.07980000
H       -1.00590000       1.49230000      -1.06770000
H       -2.83830000      -2.01410000      -0.32520000
H       -3.01450000      -0.65810000       0.77190000
H       -3.70130000       1.16830000      -2.96200000
H        2.14550000      -0.35930000       0.24850000
