17
Properties=species:S:1:pos:R:3 gdb_9822=T pbc="F F F"
C       -0.21120000       1.42170000      -0.79770000
C       -0.08440000       0.15570000       0.02170000
C        0.87630000      -0.90620000      -0.43030000
N        1.15330000      -0.13100000       0.77670000
C       -1.34220000      -0.29000000       0.70880000
O       -2.43720000       0.05770000       0.31020000
C       -1.25200000      -1.17490000       1.94490000
O       -2.52590000      -1.56280000       2.36930000
H        0.71720000       1.62670000      -1.33930000
H       -1.02650000       1.32860000      -1.51870000
H       -0.43570000       2.28060000      -0.15690000
H        0.65730000      -1.95740000      -0.26750000
H        1.43120000      -0.69390000      -1.34060000
H        1.84190000       0.59320000       0.58840000
H       -0.62300000      -2.05240000       1.73740000
H       -0.71240000      -0.60090000       2.71550000
H       -3.14090000      -1.07420000       1.79850000
