19
Properties=species:S:1:pos:R:3 gdb_119219=T pbc="F F F"
C       -0.29000000       1.38030000      -0.10350000
O       -0.27860000      -0.02290000      -0.21200000
C        0.81010000      -0.50280000      -0.96220000
C        0.75760000      -2.01650000      -0.96830000
O       -0.10970000      -2.61740000      -1.95100000
C        1.29330000      -2.81630000      -2.10060000
C        1.96790000      -2.26100000      -3.32990000
C        0.73050000      -2.62930000       0.34140000
C        0.74140000      -3.14380000       1.42720000
H        0.61750000       1.75870000       0.39370000
H       -0.36960000       1.86680000      -1.08870000
H       -1.16160000       1.65230000       0.49580000
H        0.76850000      -0.12440000      -1.99310000
H        1.76600000      -0.17570000      -0.51700000
H        1.61800000      -3.82300000      -1.83090000
H        1.60530000      -1.26560000      -3.58970000
H        3.05210000      -2.21650000      -3.18180000
H        1.77510000      -2.92200000      -4.18150000
H        0.73410000      -3.59450000       2.38880000
