17
Properties=species:S:1:pos:R:3 gdb_123447=T pbc="F F F"
C        0.08230000       1.29510000       0.55170000
C       -0.04110000      -0.11150000       0.02030000
C       -1.38150000      -0.66820000      -0.28100000
N       -0.44830000      -0.35110000      -1.37480000
N        1.36680000       1.90360000       0.21670000
C        2.05460000       2.84080000       0.93650000
N        3.14270000       3.20930000       0.31230000
N        3.19120000       2.49840000      -0.87080000
C        2.12920000       1.73470000      -0.90850000
H       -0.73660000       1.91220000       0.15790000
H       -0.00450000       1.29560000       1.64330000
H        0.73710000      -0.78940000       0.36390000
H       -1.57180000      -1.72600000      -0.12920000
H       -2.24700000      -0.02690000      -0.13320000
H       -0.72450000       0.52450000      -1.81480000
H        1.71820000       3.20600000       1.89500000
H        1.87320000       1.04160000      -1.69420000
