18
Properties=species:S:1:pos:R:3 gdb_116624=T pbc="F F F"
C       -0.39330000       1.51570000      -0.00880000
C        0.28100000       0.14940000       0.09850000
N        0.98540000      -0.16620000      -1.13960000
C        2.01790000      -0.88390000      -1.10000000
O        2.55780000      -1.45460000       0.03000000
C        3.88230000      -1.95340000      -0.22310000
C        4.05170000      -1.92260000      -1.72700000
O        3.04000000      -2.66980000      -2.39380000
C        2.86970000      -1.24270000      -2.26810000
H        0.35060000       2.30650000      -0.14780000
H       -1.07410000       1.54210000      -0.86440000
H       -0.96340000       1.73820000       0.89870000
H        0.94980000       0.11380000       0.96910000
H       -0.48270000      -0.62350000       0.26200000
H        4.61650000      -1.30680000       0.27260000
H        3.95180000      -2.96330000       0.19160000
H        5.03530000      -1.89770000      -2.18600000
H        2.82520000      -0.66880000      -3.18530000
