16
Properties=species:S:1:pos:R:3 gdb_45960=T pbc="F F F"
N        0.04430000       1.15400000      -0.52850000
C       -0.05070000       0.07150000       0.11780000
O        0.92190000      -0.35160000       0.99180000
C        1.28840000      -1.73410000       1.00930000
C        0.19670000      -2.75640000       0.68590000
O        0.48880000      -3.92820000       0.62100000
C       -1.16270000      -2.23800000       0.41190000
C       -1.80860000      -1.27140000       1.38590000
C       -1.28270000      -0.75130000       0.07780000
H        0.95420000       1.58540000      -0.35420000
H        2.10470000      -1.90610000       0.29570000
H        1.67910000      -1.94170000       2.00970000
H       -1.81310000      -2.93870000      -0.09790000
H       -2.88210000      -1.35750000       1.50170000
H       -1.26820000      -1.00730000       2.28690000
H       -1.98640000      -0.45950000      -0.69030000
