19
Properties=species:S:1:pos:R:3 gdb_86228=T pbc="F F F"
C        0.14730000       1.42930000      -0.05080000
C        0.13440000      -0.07560000       0.18070000
C        0.34320000      -0.93590000      -1.10710000
C        1.46290000      -1.93000000      -0.76180000
O        2.67880000      -1.39990000      -1.27290000
C        1.50030000      -1.87170000       0.80070000
N        1.19030000      -0.48050000       1.13830000
C        0.51430000      -2.79300000       1.38760000
N       -0.25940000      -3.54320000       1.80480000
H        1.08440000       1.74210000      -0.52710000
H       -0.67550000       1.72570000      -0.70760000
H        0.04130000       1.96950000       0.89450000
H       -0.82420000      -0.35420000       0.63400000
H       -0.57240000      -1.45870000      -1.39240000
H        0.66620000      -0.33060000      -1.95750000
H        1.27820000      -2.94100000      -1.14380000
H        3.37120000      -2.05930000      -1.15740000
H        2.48830000      -2.14720000       1.18250000
H        2.02970000       0.05690000       0.93360000
