14
Properties=species:S:1:pos:R:3 gdb_33844=T pbc="F F F"
N        0.07630000      -1.14170000       0.13940000
C        0.08120000       0.00990000       0.03560000
C        0.05840000       1.42760000      -0.13770000
C       -0.71810000       2.24920000      -1.18720000
C        0.48250000       3.23020000      -1.17100000
C        1.08150000       3.96440000      -2.28410000
O        0.41590000       4.63190000      -1.19840000
C        1.17420000       2.41220000      -0.09590000
O        0.25780000       2.27660000       0.99430000
H       -0.85130000       1.74210000      -2.14440000
H       -1.66810000       2.64220000      -0.82270000
H        2.16000000       4.10830000      -2.32700000
H        0.56490000       3.99730000      -3.24170000
H        2.22780000       2.27110000       0.11420000
