21
Properties=species:S:1:pos:R:3 gdb_77367=T pbc="F F F"
C        0.02040000       1.48050000       0.03800000
C        0.00970000      -0.01730000      -0.04920000
C       -0.95790000      -0.88910000       0.77190000
C       -1.06820000      -2.25290000       0.09380000
C        0.44450000      -2.10160000      -0.23410000
C        1.32550000      -3.30100000      -0.45920000
C        0.53650000      -1.03750000       0.94000000
C        0.48430000      -0.88230000      -1.21000000
O       -0.21240000      -0.91520000      -2.43420000
H        1.00750000       1.88550000      -0.21180000
H       -0.70420000       1.92380000      -0.65460000
H       -0.23440000       1.82280000       1.04690000
H       -1.65470000      -0.42750000       1.46060000
H       -1.23430000      -3.04880000       0.82610000
H       -1.76410000      -2.39340000      -0.74480000
H        1.04230000      -3.81270000      -1.38660000
H        2.37840000      -3.01110000      -0.54900000
H        1.24420000      -4.02300000       0.36060000
H        1.19010000      -0.92670000       1.79300000
H        1.52300000      -0.64490000      -1.46520000
H       -1.15320000      -0.97350000      -2.23960000
