17
Properties=species:S:1:pos:R:3 gdb_96784=T pbc="F F F"
C        0.05560000       1.47840000       0.05130000
N       -0.01060000       0.03650000       0.08380000
C       -1.12330000      -0.56290000       0.02050000
C       -2.51680000      -0.07380000      -0.09170000
C       -3.36950000      -1.09830000      -0.12550000
C       -2.63770000      -2.40300000      -0.03990000
N       -1.23940000      -1.98360000       0.04950000
C       -0.23220000      -2.92330000       0.14510000
O        0.95110000      -2.72210000       0.22270000
H        0.68390000       1.78820000      -0.79230000
H       -0.90670000       2.00460000      -0.03150000
H        0.55850000       1.83310000       0.95880000
H       -2.77490000       0.97330000      -0.13720000
H       -4.44740000      -1.04580000      -0.20390000
H       -2.94260000      -2.98720000       0.83980000
H       -2.81670000      -3.03230000      -0.92310000
H       -0.66880000      -3.94530000       0.14140000
