20
Properties=species:S:1:pos:R:3 gdb_86676=T pbc="F F F"
C       -0.51440000       1.41110000       0.03700000
C        0.05090000       0.00100000      -0.04060000
C        1.39010000      -0.17140000      -0.82850000
N        2.00550000      -0.68040000       0.39690000
C        3.25620000      -1.13510000       0.61470000
O        4.12820000      -1.18380000      -0.23160000
C        0.80540000      -0.53050000       1.19840000
C        0.74470000      -0.04930000       2.61730000
C        0.32950000      -1.46780000       2.26490000
H        0.24540000       2.12330000       0.37490000
H       -0.87320000       1.73860000      -0.94430000
H       -1.35920000       1.46460000       0.73200000
H       -0.71630000      -0.70020000      -0.38050000
H        1.37970000      -0.89710000      -1.64670000
H        1.84080000       0.76100000      -1.18470000
H        3.40700000      -1.46510000       1.66330000
H        1.68180000       0.08810000       3.14670000
H       -0.02810000       0.66440000       2.88420000
H       -0.72680000      -1.71770000       2.28840000
H        0.98760000      -2.27760000       2.56240000
