18
Properties=species:S:1:pos:R:3 gdb_12504=T pbc="F F F"
C        0.07080000       1.53070000       0.08130000
C        0.01500000       0.03520000      -0.05460000
C        0.07100000      -0.57970000      -1.24690000
C       -0.02170000      -2.01060000      -1.51410000
C        0.07140000      -3.04700000      -0.66720000
C        0.40500000      -3.04170000       0.79610000
O        0.82270000      -1.81530000       1.34370000
C       -0.11280000      -0.75180000       1.23180000
H        0.95020000       1.84210000       0.66070000
H        0.10970000       2.02500000      -0.89270000
H       -0.80500000       1.91550000       0.62130000
H        0.15250000       0.04650000      -2.13330000
H       -0.21820000      -2.25600000      -2.55600000
H       -0.08180000      -4.04770000      -1.06900000
H       -0.44850000      -3.45970000       1.36370000
H        1.24500000      -3.72820000       0.96930000
H        0.07490000      -0.09510000       2.08840000
H       -1.14110000      -1.13580000       1.33560000
