21
Properties=species:S:1:pos:R:3 gdb_81549=T pbc="F F F"
O        0.03110000       1.39980000      -0.38530000
C        0.01270000       0.03720000      -0.06480000
C       -0.01400000      -0.46140000       1.41570000
C       -1.52140000      -0.06170000       1.45670000
C       -1.32510000      -0.75910000       0.07600000
C       -0.48320000      -1.82510000       0.83950000
C        0.40880000      -2.86930000       0.11870000
C       -0.51420000      -3.98780000       0.67520000
C       -1.14330000      -2.96270000       1.65950000
H       -0.61450000       1.86310000       0.15760000
H        0.76990000      -0.42120000      -0.70300000
H        0.73870000      -0.29990000       2.19020000
H       -2.14700000      -0.58050000       2.18530000
H       -1.76790000       1.00480000       1.45980000
H       -2.08050000      -0.93940000      -0.69160000
H        0.49510000      -2.79600000      -0.96860000
H        1.41860000      -2.91260000       0.53970000
H       -1.23310000      -4.33830000      -0.06990000
H       -0.02450000      -4.85840000       1.11650000
H       -0.72530000      -3.04360000       2.66810000
H       -2.23350000      -2.96090000       1.74000000
