15
Properties=species:S:1:pos:R:3 gdb_18206=T pbc="F F F"
N       -0.00470000      -1.12120000      -0.29840000
C        0.01020000       0.02790000      -0.18170000
C        0.01590000       1.49750000      -0.09470000
N       -0.61440000       1.95950000       1.14460000
C       -0.03780000       3.25230000       1.53220000
C        1.36860000       3.19580000       0.96960000
N        2.06630000       1.93090000       1.27050000
C        1.41360000       2.10920000      -0.03470000
H       -0.46440000       1.87500000      -1.01510000
H       -1.62400000       1.95680000       1.09850000
H       -0.55280000       4.12350000       1.09320000
H       -0.05880000       3.35730000       2.62290000
H        1.93560000       4.11240000       0.85200000
H        3.06870000       2.06100000       1.15800000
H        2.00000000       2.15490000      -0.94460000
