17
Properties=species:S:1:pos:R:3 gdb_81132=T pbc="F F F"
O        0.01210000       1.47170000      -0.09980000
C        0.01090000       0.07540000      -0.00970000
C       -0.11060000      -0.65960000       1.36250000
C       -1.53570000      -0.09270000       1.53440000
C       -1.37560000      -0.60800000       0.07950000
C       -2.39930000      -0.79100000      -1.01380000
C       -3.61620000      -1.45870000      -0.56830000
C       -4.61820000      -2.00240000      -0.18980000
O       -0.67090000      -1.80170000       0.60840000
H        0.92300000       1.78050000      -0.07650000
H        0.69860000      -0.41520000      -0.70760000
H        0.64940000      -0.88080000       2.11150000
H       -2.20030000      -0.69180000       2.15660000
H       -1.64230000       0.98280000       1.67870000
H       -2.63860000       0.20250000      -1.41510000
H       -1.93240000      -1.35580000      -1.83080000
H       -5.50230000      -2.48930000       0.13960000
