19
Properties=species:S:1:pos:R:3 gdb_39685=T pbc="F F F"
C        0.08450000       1.07550000      -0.49200000
C        1.49250000       1.41760000       0.03090000
C        1.39650000       0.05660000       0.75680000
O        0.07560000      -0.18440000       0.21820000
C        2.38000000      -1.02620000       0.34180000
C        1.91850000      -2.45050000       0.74930000
O        2.11480000      -3.22620000      -0.42430000
C        1.91930000      -2.32500000      -1.48180000
O        2.50320000      -1.10010000      -1.07920000
H       -0.72340000       1.73420000      -0.15210000
H        0.00010000       0.93040000      -1.57460000
H        2.26850000       1.46470000      -0.73260000
H        1.55460000       2.29040000       0.68170000
H        1.37330000       0.11890000       1.85510000
H        3.36910000      -0.78450000       0.75330000
H        2.51630000      -2.88460000       1.55320000
H        0.85990000      -2.44330000       1.04180000
H        2.43830000      -2.69790000      -2.36960000
H        0.84530000      -2.18270000      -1.68560000
