19
Properties=species:S:1:pos:R:3 gdb_84653=T pbc="F F F"
C        0.11120000       1.56150000      -0.02510000
C        0.06090000       0.02830000      -0.00060000
C        0.72000000      -0.58100000      -1.22210000
O        2.12620000      -0.85500000      -1.13560000
C        1.19510000      -1.97460000      -1.15060000
C        1.01830000      -2.71250000       0.12350000
C        0.75960000      -2.05870000       1.25830000
C        0.67720000      -0.54630000       1.30060000
O        1.95680000       0.01700000       1.58020000
H        1.14360000       1.91450000       0.02340000
H       -0.35200000       1.95320000      -0.93630000
H       -0.42400000       1.98140000       0.83220000
H       -0.99130000      -0.29180000      -0.02770000
H        0.40880000      -0.18220000      -2.18850000
H        1.25640000      -2.56070000      -2.06440000
H        1.11520000      -3.79360000       0.09920000
H        0.66630000      -2.59530000       2.19760000
H        0.04530000      -0.23860000       2.14070000
H        2.51680000      -0.24810000       0.83640000
