12
Properties=species:S:1:pos:R:3 gdb_21359=T pbc="F F F"
N       -0.02630000       1.35300000       0.01020000
C        1.27180000       1.82810000      -0.00020000
C        2.18010000       0.78690000      -0.01480000
C        1.38160000      -0.39030000      -0.01310000
C        0.04370000      -0.01690000       0.00220000
N       -0.77530000      -1.09070000       0.00470000
N       -0.00790000      -2.15040000      -0.00860000
N        1.29800000      -1.74570000      -0.01940000
H       -0.85870000       1.91450000       0.02140000
H        1.45830000       2.89090000       0.00350000
H        3.25280000       0.88640000      -0.02500000
H        2.01460000      -2.45100000      -0.03020000
