15
Properties=species:S:1:pos:R:3 gdb_4196=T pbc="F F F"
O       -0.15830000       1.31080000      -0.07330000
N        0.00710000      -0.08930000      -0.10900000
C       -1.11580000      -0.67130000       0.03170000
C       -2.47560000      -0.03280000       0.23650000
O       -3.34890000      -1.07360000       0.67340000
C       -2.72100000      -2.31930000       0.51210000
C       -2.31310000      -2.73000000      -0.86760000
C       -1.27950000      -2.13750000       0.09860000
H        0.74830000       1.62550000      -0.15060000
H       -2.43780000       0.75610000       0.99510000
H       -2.84090000       0.42210000      -0.69480000
H       -3.04630000      -3.04630000       1.24670000
H       -2.21620000      -3.79080000      -1.07060000
H       -2.64170000      -2.13190000      -1.71050000
H       -0.46150000      -2.75040000       0.45250000
