18
Properties=species:S:1:pos:R:3 gdb_72455=T pbc="F F F"
O        0.09240000       1.35640000      -0.09710000
C        0.05580000      -0.03920000       0.01010000
C        0.81430000      -0.70940000      -1.15830000
O        1.05060000      -2.05350000      -0.70180000
C        0.48920000      -2.12850000       0.63000000
C        0.77490000      -0.73440000       1.19380000
C       -1.03060000      -2.12060000       0.42960000
N       -1.77840000      -1.21150000       1.33090000
C       -1.31800000      -0.72670000       0.00980000
H       -0.39690000       1.72270000       0.64720000
H        0.23200000      -0.72520000      -2.08710000
H        1.76630000      -0.19780000      -1.34540000
H        0.92290000      -2.99340000       1.13090000
H        1.84250000      -0.51010000       1.21520000
H        0.31210000      -0.53940000       2.15950000
H       -1.52460000      -2.97820000      -0.01200000
H       -2.76770000      -1.43870000       1.25950000
H       -2.03670000      -0.47850000      -0.76440000
