19
Properties=species:S:1:pos:R:3 gdb_50217=T pbc="F F F"
O        0.02510000      -0.10050000       0.02090000
C        0.03760000       1.10380000       0.00560000
C        1.27620000       1.96330000       0.01530000
C        1.26890000       3.05940000      -1.09810000
C        1.38390000       4.31830000      -0.23980000
C        2.35060000       4.03840000       0.95530000
C        1.50060000       4.97650000       1.84490000
C        0.47610000       4.15980000       1.02300000
C        1.34730000       2.87880000       1.25300000
H       -0.91670000       1.68400000      -0.01120000
H        2.14430000       1.30110000      -0.04600000
H        2.10360000       2.93520000      -1.79360000
H        0.34560000       3.04780000      -1.68920000
H        1.42800000       5.28770000      -0.73980000
H        3.43830000       3.95470000       0.90990000
H        1.52710000       4.79230000       2.92240000
H        1.56200000       6.04680000       1.62870000
H       -0.61280000       4.22910000       1.05650000
H        1.35530000       2.40900000       2.23820000
