17
Properties=species:S:1:pos:R:3 gdb_128809=T pbc="F F F"
C        0.23350000       0.59110000       0.54890000
O       -0.44850000       0.31610000      -0.66050000
C       -1.60300000      -0.48450000      -0.49790000
C       -1.28900000      -1.93360000      -0.27350000
N       -1.24250000      -2.84060000      -1.24740000
N       -0.90150000      -3.93400000      -0.58180000
C       -0.72620000      -5.22920000      -1.20880000
N       -0.74280000      -3.74300000       0.72300000
N       -0.98920000      -2.47530000       0.93440000
H        1.07670000       1.23700000       0.29310000
H       -0.41750000       1.11750000       1.26390000
H        0.60870000      -0.31940000       1.03320000
H       -2.21760000      -0.12010000       0.33850000
H       -2.17450000      -0.38990000      -1.42430000
H        0.06140000      -5.16990000      -1.96260000
H       -0.44800000      -5.93340000      -0.42590000
H       -1.65960000      -5.53950000      -1.68270000
