17
Properties=species:S:1:pos:R:3 gdb_52210=T pbc="F F F"
O        0.18990000       0.30490000      -0.89000000
C        0.24300000       1.46110000      -0.59770000
O        0.92670000       1.91390000       0.46910000
C        0.98040000       3.33300000       0.68350000
C        2.33610000       3.86890000       0.30650000
C        2.63270000       4.27770000      -1.10680000
C        2.50380000       5.34660000      -0.03150000
C        1.38050000       6.23950000      -0.02950000
C        0.44500000       6.99610000      -0.02210000
H       -0.26680000       2.27180000      -1.15570000
H        0.19090000       3.83640000       0.11360000
H        0.77790000       3.48590000       1.74710000
H        3.15530000       3.43060000       0.86790000
H        3.62040000       4.08480000      -1.50860000
H        1.82910000       4.22230000      -1.83280000
H        3.43350000       5.79380000       0.30730000
H       -0.37720000       7.66820000      -0.01930000
