18
Properties=species:S:1:pos:R:3 gdb_66139=T pbc="F F F"
O       -0.02450000       1.42830000       0.09710000
C        0.01180000       0.02930000       0.04650000
C        0.63040000      -0.60010000       1.33940000
C       -0.03560000      -1.98100000       1.52110000
C       -1.39400000      -1.82170000       0.85680000
N       -2.07540000      -0.58230000       1.27890000
C       -1.37170000      -0.62430000      -0.01790000
C        0.81980000      -0.40950000      -1.16180000
O        1.33680000       0.38290000      -1.91270000
H        0.49620000       1.73450000      -0.66220000
H        1.72190000      -0.64940000       1.29910000
H        0.35400000       0.07420000       2.15070000
H        0.52890000      -2.77000000       1.01020000
H       -0.11330000      -2.26450000       2.57540000
H       -1.98930000      -2.69570000       0.61250000
H       -3.07440000      -0.66600000       1.10880000
H       -1.94930000      -0.55290000      -0.93420000
H        0.92490000      -1.50310000      -1.31340000
