15
Properties=species:S:1:pos:R:3 gdb_64635=T pbc="F F F"
C       -0.01440000       1.54280000      -0.00100000
C       -0.00750000       0.00270000      -0.01870000
N        0.79930000      -0.49610000      -1.16290000
C        1.75780000      -1.16500000      -0.65350000
N        1.78680000      -1.24620000       0.73390000
C        0.71870000      -0.52960000       1.25660000
O        0.45890000      -0.35350000       2.41680000
C       -1.36120000      -0.53910000      -0.08060000
C       -2.47700000      -0.98150000      -0.11530000
H        1.01150000       1.92110000       0.01180000
H       -0.51800000       1.91650000      -0.89410000
H       -0.53720000       1.89380000       0.89130000
H        2.53300000      -1.65530000      -1.23380000
H        2.47790000      -1.71570000       1.29670000
H       -3.46420000      -1.37210000      -0.14880000
