19
Properties=species:S:1:pos:R:3 gdb_18958=T pbc="F F F"
C       -0.12590000       1.59310000       0.03480000
C        0.15580000       0.09470000      -0.12790000
C        0.77930000      -0.52540000       1.11330000
C       -0.09370000      -0.86150000       2.33400000
C       -0.66340000      -2.18120000       1.72460000
C       -0.20400000      -2.93080000       2.96810000
N        0.93220000      -1.92270000       2.82110000
C        0.82600000      -2.05140000       1.27580000
H        0.79320000       2.14550000       0.25900000
H       -0.55620000       2.01800000      -0.87720000
H       -0.82990000       1.77860000       0.85320000
H       -0.77500000      -0.43000000      -0.37770000
H        0.83110000      -0.05940000      -0.97950000
H        1.72260000      -0.03530000       1.38530000
H       -0.58020000      -0.20300000       3.05710000
H       -1.55350000      -2.31640000       1.10160000
H       -0.78010000      -2.80630000       3.89140000
H        0.11970000      -3.97130000       2.85670000
H        1.42600000      -2.79510000       0.74620000
