20
Properties=species:S:1:pos:R:3 gdb_57964=T pbc="F F F"
C        0.39000000       0.01690000      -0.81340000
C       -0.55910000      -0.29640000       0.35550000
O        0.07010000      -0.06630000       1.58960000
C       -1.83390000       0.54050000       0.27010000
O       -2.09930000       1.31930000       1.16230000
C       -2.73750000       0.42420000      -0.95170000
N       -2.71260000      -0.90250000      -1.54840000
C       -3.73570000      -1.84020000      -1.08620000
C       -3.82180000      -1.22630000      -2.43940000
H        1.31740000      -0.54260000      -0.66870000
H       -0.05490000      -0.27750000      -1.76680000
H        0.63760000       1.08300000      -0.83450000
H       -0.85820000      -1.35290000       0.27740000
H       -0.45630000       0.62650000       2.01990000
H       -3.74230000       0.76380000      -0.65220000
H       -2.36340000       1.14240000      -1.69500000
H       -3.41140000      -2.86940000      -0.96650000
H       -4.44260000      -1.49160000      -0.33530000
H       -4.58860000      -0.46910000      -2.59340000
H       -3.56200000      -1.79980000      -3.32410000
