21
Properties=species:S:1:pos:R:3 gdb_110555=T pbc="F F F"
C       -0.10120000       1.51210000      -0.33470000
C       -0.07130000       0.01380000      -0.17150000
C        0.33870000      -0.98810000      -1.27540000
C        0.00270000      -1.87710000      -0.07290000
C        0.61000000      -0.86290000       0.95590000
C       -0.66000000      -0.94200000       1.83270000
C       -1.03300000       0.15620000       2.80760000
O       -2.35860000      -0.10950000       3.25420000
C       -1.18720000      -0.96430000       0.38030000
H        0.89020000       1.88510000      -0.61730000
H       -0.79720000       1.79520000      -1.13290000
H       -0.40720000       2.03800000       0.57310000
H       -0.32550000      -1.05770000      -2.14430000
H        1.38650000      -0.96220000      -1.59600000
H        0.03500000      -2.96340000       0.02280000
H        1.65810000      -0.81510000       1.26180000
H       -0.77690000      -1.90700000       2.34310000
H       -0.32200000       0.14690000       3.65110000
H       -0.96820000       1.14840000       2.34100000
H       -2.59810000       0.56270000       3.89860000
H       -2.21690000      -1.03120000       0.02500000
