17
Properties=species:S:1:pos:R:3 gdb_67799=T pbc="F F F"
O       -0.09480000       1.41290000      -0.04210000
C       -0.01640000       0.02470000      -0.08950000
C        0.88510000      -0.65690000      -1.03900000
C        0.37110000      -1.83620000      -1.41600000
C       -0.90700000      -2.14390000      -0.63700000
C       -0.35630000      -2.93210000       0.55380000
C       -0.04830000      -2.10330000       1.56290000
C       -0.47180000      -0.72550000       1.26420000
C       -1.27490000      -0.77000000      -0.01060000
H        0.69470000       1.74590000       0.39710000
H        1.84940000      -0.25700000      -1.33110000
H        0.86700000      -2.57450000      -2.03590000
H       -1.69470000      -2.64150000      -1.20690000
H       -0.09350000      -3.98110000       0.48610000
H        0.48460000      -2.38100000       2.46480000
H       -0.72350000      -0.02050000       2.04840000
H       -2.25400000      -0.31820000      -0.11750000
