22
Properties=species:S:1:pos:R:3 gdb_10728=T pbc="F F F"
C        0.59620000      -0.15190000       1.35750000
C        0.02210000      -0.21370000      -0.06470000
C       -1.39590000      -0.76910000      -0.14940000
C       -1.78890000      -1.44430000      -1.44200000
C       -1.53570000      -2.27000000      -0.20170000
C       -2.47230000       0.01720000       0.61290000
C       -2.60490000       1.46610000       0.13730000
O       -3.74130000      -0.63420000       0.58100000
H        1.64280000       0.16760000       1.33910000
H        0.05130000       0.55560000       1.99050000
H        0.55210000      -1.13280000       1.84220000
H        0.06410000       0.78380000      -0.52040000
H        0.67130000      -0.84780000      -0.68030000
H       -2.81530000      -1.36960000      -1.78660000
H       -1.05950000      -1.47020000      -2.24490000
H       -0.63120000      -2.86820000      -0.15910000
H       -2.40090000      -2.70770000       0.28070000
H       -2.20390000       0.01780000       1.67600000
H       -2.83120000       1.50160000      -0.93580000
H       -3.41450000       1.96210000       0.68000000
H       -1.68580000       2.03570000       0.30000000
H       -4.14740000      -0.44530000      -0.27140000
