17
Properties=species:S:1:pos:R:3 gdb_34958=T pbc="F F F"
C       -0.08360000      -1.25930000      -0.22270000
C       -0.03330000      -0.06360000      -0.10240000
C        0.03570000       1.37160000       0.06290000
C       -0.26310000       2.02150000       1.45550000
C        0.54600000       1.36510000       2.60370000
C        1.81550000       2.08910000       2.09880000
O        2.37350000       1.43890000       0.93160000
C        1.42720000       2.08590000       0.06680000
C        0.93610000       3.01580000       1.20980000
H       -0.12200000      -2.31440000      -0.33560000
H       -0.58750000       1.87540000      -0.68710000
H       -1.29300000       2.31790000       1.64920000
H        0.23440000       1.76810000       3.57290000
H        0.58000000       0.27410000       2.64990000
H        2.59020000       2.39310000       2.80480000
H        1.86680000       2.37270000      -0.89020000
H        0.90480000       4.10150000       1.20800000
