19
Properties=species:S:1:pos:R:3 gdb_76509=T pbc="F F F"
O        0.07010000       1.35250000      -0.09150000
C        0.02700000      -0.04420000      -0.06830000
C       -0.46840000      -0.70730000       1.20180000
O       -0.92210000       0.16160000       2.21280000
C       -1.30960000      -0.74400000      -0.03870000
C       -2.70150000      -0.09290000      -0.16950000
C       -3.16250000      -1.34210000      -0.94030000
C       -2.29010000      -1.58050000      -2.14090000
C       -1.77830000      -1.98010000      -0.78230000
H       -0.37130000       1.64400000       0.71840000
H        0.85360000      -0.48530000      -0.61870000
H       -0.01180000      -1.63140000       1.55480000
H       -0.17580000       0.35340000       2.79200000
H       -3.19020000       0.02400000       0.80040000
H       -2.74450000       0.85740000      -0.71110000
H       -4.13410000      -1.80930000      -0.83980000
H       -2.59620000      -2.40230000      -2.78070000
H       -1.83820000      -0.74390000      -2.66890000
H       -1.51790000      -3.00230000      -0.53370000
