21
Properties=species:S:1:pos:R:3 gdb_122858=T pbc="F F F"
C       -0.05870000       1.40620000      -0.03760000
O       -0.01820000       0.00180000      -0.09390000
C       -1.28900000      -0.59170000       0.04520000
C       -1.12750000      -2.10350000      -0.02780000
C       -2.46220000      -2.83630000       0.10200000
C       -2.31540000      -4.35440000       0.13400000
O       -1.26250000      -4.90720000       0.32650000
C       -3.61280000      -5.12730000      -0.09330000
O       -3.39920000      -6.49550000       0.12690000
H        0.96540000       1.76910000      -0.15440000
H       -0.68000000       1.83150000      -0.84250000
H       -0.45550000       1.76710000       0.92510000
H       -1.74710000      -0.29900000       1.00760000
H       -1.96820000      -0.23390000      -0.75010000
H       -0.64730000      -2.36610000      -0.97630000
H       -0.44880000      -2.43680000       0.76190000
H       -2.97300000      -2.54500000       1.03250000
H       -3.15440000      -2.55870000      -0.70480000
H       -4.38500000      -4.70070000       0.57090000
H       -3.93950000      -4.90760000      -1.12580000
H       -4.22090000      -6.95960000      -0.05720000
