11
Properties=species:S:1:pos:R:3 gdb_132181=T pbc="F F F"
F        0.05070000       0.09150000       0.13890000
C       -0.07240000       1.38660000       0.02180000
N       -1.18740000       1.96000000       0.15670000
C       -1.25670000       3.36490000       0.01870000
N       -2.32190000       4.04880000       0.13300000
C        0.03050000       4.00310000      -0.27590000
F        0.06460000       5.31560000      -0.42220000
C        1.14850000       3.28240000      -0.39550000
O        1.12960000       1.91180000      -0.24570000
H       -3.10380000       3.42320000       0.33750000
H        2.13330000       3.66770000      -0.60990000
