17
Properties=species:S:1:pos:R:3 gdb_81832=T pbc="F F F"
C       -0.24650000       1.49490000      -0.05600000
N        0.06390000       0.07260000      -0.07730000
C        0.69980000      -0.49660000      -1.26460000
C        2.14970000      -0.07230000      -1.43280000
C        1.80220000      -1.12110000      -0.42560000
O        2.40600000      -2.35240000      -0.43670000
C        1.14230000      -0.47090000       0.81250000
C        1.95390000       0.48860000       1.55850000
N        2.58520000       1.26740000       2.13500000
H        0.60900000       2.15240000      -0.27460000
H       -1.02540000       1.68430000      -0.80070000
H       -0.64330000       1.76740000       0.92610000
H        0.10060000      -0.89800000      -2.07400000
H        2.63090000      -0.47950000      -2.31640000
H        2.50040000       0.91100000      -1.13310000
H        1.76390000      -3.01960000      -0.16730000
H        0.72830000      -1.20360000       1.51610000
