19
Properties=species:S:1:pos:R:3 gdb_74410=T pbc="F F F"
C       -0.03680000       1.50370000       0.04840000
C       -0.05280000       0.01550000      -0.03540000
C       -0.07230000      -0.79250000      -1.09660000
C        0.01160000      -2.24570000      -0.57910000
O       -0.29000000      -3.27520000      -1.48080000
C       -0.84830000      -2.07750000       0.71400000
C        0.05120000      -0.90450000       1.20830000
C        1.41400000      -1.62680000       1.15130000
C        1.38760000      -2.42230000       0.08360000
H        0.89390000       1.86170000       0.50910000
H       -0.12420000       1.96600000      -0.93880000
H       -0.85610000       1.87830000       0.67540000
H       -0.06130000      -0.52920000      -2.14710000
H       -1.13710000      -3.07080000      -1.89000000
H       -1.88050000      -1.77720000       0.50730000
H       -0.81740000      -2.95720000       1.36190000
H       -0.20050000      -0.43360000       2.15920000
H        2.23090000      -1.45100000       1.83790000
H        2.16140000      -3.05790000      -0.32470000
