17
Properties=species:S:1:pos:R:3 gdb_125285=T pbc="F F F"
C       -0.02050000       1.44520000       0.08980000
C       -0.00070000      -0.04290000      -0.02190000
C       -0.03820000      -0.80250000      -1.13560000
C        0.00200000      -2.20780000      -0.76110000
C        0.00430000      -3.52420000      -1.18950000
C        0.07090000      -4.26840000       0.01340000
N        0.10730000      -3.49420000       1.10410000
N        0.06390000      -2.25440000       0.59700000
C        0.06950000      -0.94120000       1.20690000
H        0.87670000       1.82380000       0.59610000
H       -0.07250000       1.91180000      -0.89710000
H       -0.88080000       1.79460000       0.67490000
H       -0.09000000      -0.43500000      -2.15130000
H       -0.03510000      -3.89800000      -2.19900000
H        0.09380000      -5.34260000       0.12750000
H        0.98010000      -0.77450000       1.79530000
H       -0.78960000      -0.80390000       1.87490000
