20
Properties=species:S:1:pos:R:3 gdb_6780=T pbc="F F F"
C       -0.01440000       1.40560000       0.00200000
O       -0.01270000      -0.00030000      -0.00060000
C        0.65500000      -0.54810000      -1.11490000
C        0.59650000      -2.06600000      -1.01740000
C        1.29870000      -2.74870000      -2.18910000
C        1.25940000      -4.27200000      -2.12390000
C        1.94330000      -5.00780000      -3.26420000
O        0.71630000      -4.86120000      -1.21850000
H        1.00750000       1.81750000       0.03080000
H       -0.52190000       1.81730000      -0.88560000
H       -0.55050000       1.73180000       0.89660000
H        0.18380000      -0.20160000      -2.05280000
H        1.70430000      -0.20160000      -1.14170000
H        1.05120000      -2.38480000      -0.07460000
H       -0.44930000      -2.38480000      -0.97380000
H        0.85850000      -2.44260000      -3.14950000
H        2.35310000      -2.44270000      -2.25380000
H        3.00190000      -4.73000000      -3.31830000
H        1.85400000      -6.08460000      -3.11640000
H        1.49340000      -4.72910000      -4.22380000
