19
Properties=species:S:1:pos:R:3 gdb_81044=T pbc="F F F"
C       -0.36150000       1.32850000       0.12820000
C        0.05200000      -0.11730000      -0.02770000
O        0.43480000      -0.79200000       0.91000000
C        0.00620000      -0.73370000      -1.39180000
C       -0.97110000      -0.57890000      -2.59280000
C        0.07000000      -1.65140000      -3.03960000
C        1.17230000      -0.72640000      -2.44870000
C       -0.08680000      -2.26970000      -1.62350000
O        0.94880000      -3.07610000      -1.14080000
H        0.20420000       1.96170000      -0.56450000
H       -1.41940000       1.44130000      -0.13590000
H       -0.20040000       1.65940000       1.15490000
H       -1.99910000      -0.91810000      -2.43430000
H       -0.93870000       0.36980000      -3.13230000
H        0.09420000      -2.18110000      -3.99180000
H        1.34560000       0.22160000      -2.96410000
H        2.09610000      -1.20940000      -2.13550000
H       -1.07380000      -2.70470000      -1.41130000
H        1.03160000      -2.86600000      -0.20150000
