21
Properties=species:S:1:pos:R:3 gdb_60860=T pbc="F F F"
C       -0.19220000       1.74180000       0.04560000
C        0.08300000       0.24140000       0.04080000
C        1.21720000      -0.28240000      -0.90130000
C        1.77330000      -1.13830000       0.26790000
C        0.89690000      -0.31770000       1.25130000
C       -1.22660000      -0.56510000      -0.13210000
O       -2.07340000      -0.39780000       0.97400000
C       -1.96090000      -0.19050000      -1.40340000
O       -3.11510000       0.16810000      -1.38850000
H        0.72190000       2.30140000       0.26640000
H       -0.56820000       2.09330000      -0.92310000
H       -0.93820000       1.99000000       0.80640000
H        0.91910000      -0.81280000      -1.81110000
H        1.89630000       0.52490000      -1.18880000
H        1.46600000      -2.18550000       0.20380000
H        2.85350000      -1.11360000       0.42620000
H        1.46240000       0.47620000       1.74720000
H        0.32910000      -0.86200000       2.00810000
H       -0.95370000      -1.63180000      -0.24500000
H       -2.92760000      -0.11670000       0.60870000
H       -1.39200000      -0.26810000      -2.35090000
