20
Properties=species:S:1:pos:R:3 gdb_96970=T pbc="F F F"
C        0.21500000       1.31770000       0.26350000
N        0.25950000      -0.13580000       0.33360000
C        0.61500000      -0.78820000      -0.67780000
O        0.99120000      -0.28430000      -1.91990000
C        1.29020000      -1.51010000      -2.64890000
C        0.08800000      -2.40610000      -2.28270000
C        0.75200000      -2.27650000      -0.86560000
C        2.14580000      -2.29300000      -1.61460000
C        2.73510000      -3.64130000      -2.00180000
H        0.47930000       1.73180000      -0.71600000
H       -0.79280000       1.65640000       0.52920000
H        0.89570000       1.73290000       1.01570000
H        1.60460000      -1.26170000      -3.66110000
H       -0.90650000      -1.97750000      -2.42100000
H        0.13480000      -3.41240000      -2.69550000
H        0.50950000      -2.90930000      -0.01620000
H        2.91540000      -1.67260000      -1.14470000
H        2.01030000      -4.31790000      -2.46140000
H        3.56050000      -3.50820000      -2.70990000
H        3.14030000      -4.14330000      -1.11720000
