19
Properties=species:S:1:pos:R:3 gdb_26233=T pbc="F F F"
C        0.23710000       1.23720000       1.04980000
C       -0.18150000       0.35040000      -0.12140000
O        0.74160000      -0.73240000      -0.32610000
C       -1.57820000      -0.17380000       0.01400000
C       -2.64190000       0.15550000       0.82130000
C       -3.74540000      -0.67290000       0.45590000
C       -3.31440000      -1.50030000      -0.55840000
N       -3.92670000      -2.57160000      -1.23600000
N       -2.00820000      -1.18600000      -0.82640000
H        1.27310000       1.55770000       0.91580000
H       -0.39810000       2.12560000       1.11620000
H        0.15690000       0.69280000       1.99700000
H       -0.08550000       0.93070000      -1.04980000
H        0.68290000      -1.29850000       0.45310000
H       -2.64680000       0.92810000       1.57480000
H       -4.73890000      -0.65610000       0.87780000
H       -4.07130000      -2.37540000      -2.22230000
H       -4.82800000      -2.78170000      -0.82600000
H       -1.38800000      -1.72240000      -1.40990000
