20
Properties=species:S:1:pos:R:3 gdb_87573=T pbc="F F F"
C        0.04350000       1.59680000      -0.04610000
C       -0.00360000       0.09320000       0.06690000
N        1.27260000      -0.63540000      -0.14010000
C        0.63230000      -0.65240000       1.17170000
C        1.32060000      -0.14760000       2.42790000
O        0.29330000      -0.03950000       3.43020000
C        0.86440000      -1.32760000       3.17980000
C        0.15510000      -1.92150000       1.94130000
C       -1.33400000      -2.21260000       2.05380000
H        0.97050000       1.98590000       0.38270000
H       -0.00070000       1.91150000      -1.09420000
H       -0.80050000       2.05150000       0.48320000
H       -0.89580000      -0.37060000      -0.35330000
H        1.10800000      -1.51530000      -0.62440000
H        2.20400000       0.47010000       2.53370000
H        1.31340000      -1.84630000       4.01900000
H        0.70860000      -2.79590000       1.57650000
H       -1.85300000      -1.35470000       2.48900000
H       -1.77490000      -2.41930000       1.07250000
H       -1.51820000      -3.08690000       2.68770000
