15
Properties=species:S:1:pos:R:3 gdb_18852=T pbc="F F F"
O        0.03450000       0.07120000       0.28220000
C       -0.05700000       1.24480000       0.08240000
C       -1.14450000       2.25140000      -0.09110000
C       -0.75420000       3.46340000       0.81660000
C        0.20970000       3.22840000       1.98080000
C        1.47320000       2.66090000       1.26320000
N        0.99390000       2.24950000      -0.08140000
C       -0.05110000       3.24060000      -0.46760000
H       -2.15130000       2.12670000      -0.46870000
H       -1.52820000       4.21980000       0.89210000
H        0.42250000       4.16880000       2.49780000
H       -0.19530000       2.52880000       2.71790000
H        2.24570000       3.42560000       1.14470000
H        1.91170000       1.79880000       1.76890000
H        0.04500000       3.87500000      -1.33670000
