16
Properties=species:S:1:pos:R:3 gdb_12228=T pbc="F F F"
C        0.14050000       1.59100000       0.21020000
C       -0.04950000       0.09150000       0.18280000
O        0.63220000      -0.54020000      -0.94430000
C        1.38020000      -1.40020000      -0.07500000
C        2.87000000      -1.22430000      -0.23700000
O        3.65680000      -1.42760000       0.65840000
C        0.75100000      -0.77000000       1.19900000
O        1.60480000      -0.03620000       2.02980000
H        1.19670000       1.84830000       0.30800000
H       -0.25290000       2.02880000      -0.71210000
H       -0.39850000       2.02600000       1.05790000
H       -1.11450000      -0.17040000       0.15870000
H        1.13770000      -2.46410000      -0.22260000
H        3.19200000      -0.87800000      -1.24220000
H        0.13290000      -1.46930000       1.77560000
H        2.43200000      -0.53100000       2.11200000
