19
Properties=species:S:1:pos:R:3 gdb_39338=T pbc="F F F"
C       -0.25450000       1.40520000      -0.07470000
C        1.19450000       0.94040000       0.00820000
O        1.79140000       0.95810000       1.27940000
C        1.53250000      -0.31160000       1.89270000
C        0.15330000      -0.77270000       1.37470000
C        0.02550000      -2.25350000       0.95330000
C        0.27760000      -2.20380000      -0.56740000
O       -0.25390000      -0.94890000      -0.99400000
C        0.06360000      -0.04890000       0.02070000
H       -0.68810000       1.90910000       0.78330000
H       -0.58100000       1.76750000      -1.04470000
H        1.86200000       1.08790000      -0.83490000
H        2.31100000      -1.03610000       1.60360000
H        1.57730000      -0.17180000       2.97590000
H       -0.64080000      -0.47800000       2.06550000
H        0.72950000      -2.91130000       1.47050000
H       -0.98540000      -2.61840000       1.15360000
H        1.35560000      -2.25280000      -0.78540000
H       -0.22820000      -2.99160000      -1.12960000
