14
Properties=species:S:1:pos:R:3 gdb_51974=T pbc="F F F"
O       -0.08460000       0.54270000      -0.03490000
C        0.54600000       1.35350000      -0.65330000
C        1.99550000       1.68920000      -0.31980000
O        2.47850000       2.80790000      -1.07640000
C        1.96520000       3.99790000      -0.72890000
O        1.15010000       4.16700000       0.13730000
C        2.57880000       5.14190000      -1.53560000
C        3.08770000       4.77690000      -2.85260000
N        3.48530000       4.51010000      -3.90300000
H        0.13450000       1.89570000      -1.53290000
H        2.08740000       1.87260000       0.75340000
H        2.63570000       0.85100000      -0.60580000
H        1.82140000       5.92500000      -1.62280000
H        3.39630000       5.55960000      -0.93500000
