19
Properties=species:S:1:pos:R:3 gdb_107935=T pbc="F F F"
C        0.11050000       1.33200000      -0.11740000
C        0.02790000      -0.15090000      -0.00060000
O        0.93070000      -0.96140000      -0.76550000
C        0.07340000      -2.10210000      -0.41700000
C        0.14140000      -3.18680000      -1.45050000
O        1.46820000      -3.66730000      -1.57990000
C        0.37150000      -2.29700000       1.09440000
C       -0.32920000      -0.95070000       1.26810000
C       -1.10260000      -1.12320000      -0.04170000
H        1.07990000       1.69530000       0.24030000
H       -0.01420000       1.65120000      -1.15680000
H       -0.67240000       1.80210000       0.48500000
H       -0.47970000      -4.03660000      -1.14830000
H       -0.24830000      -2.80420000      -2.40690000
H        2.02470000      -2.89370000      -1.72940000
H       -0.21810000      -3.11480000       1.51760000
H        1.42440000      -2.39500000       1.37260000
H       -0.66670000      -0.47110000       2.17840000
H       -2.14980000      -1.05650000      -0.30300000
