17
Properties=species:S:1:pos:R:3 gdb_123838=T pbc="F F F"
C        0.09540000       1.45040000      -0.34710000
C        1.40230000       1.99990000       0.28650000
C        2.13360000       0.74150000       0.68750000
C        3.45700000       0.51720000       1.04950000
N        3.92310000      -0.69020000       1.38500000
N        3.10470000      -1.73870000       1.38720000
C        1.81970000      -1.58050000       1.05380000
C        1.28000000      -0.35200000       0.68970000
C       -0.11910000       0.05080000       0.29050000
H       -0.75740000       2.11630000      -0.19970000
H        0.23860000       1.33640000      -1.42640000
H        1.97440000       2.63380000      -0.39700000
H        1.18830000       2.60780000       1.17560000
H        4.19340000       1.31640000       1.07180000
H        1.22330000      -2.48890000       1.07960000
H       -0.75900000       0.11300000       1.18070000
H       -0.59650000      -0.65990000      -0.39030000
