22
Properties=species:S:1:pos:R:3 gdb_93576=T pbc="F F F"
C        0.10700000       1.64590000      -0.10880000
C        0.02390000       0.12380000       0.04950000
C        0.64460000      -0.66710000      -1.13210000
C        1.24400000      -1.94690000      -0.50560000
C        1.46090000      -1.54940000       0.94630000
C        0.78650000      -0.43030000       1.23120000
C        2.26260000      -2.33250000       1.90600000
C        2.47920000      -3.79770000       1.72710000
N        3.59760000      -2.86790000       1.53870000
H        1.14900000       1.97190000      -0.19980000
H       -0.43050000       1.97830000      -1.00340000
H       -0.33160000       2.16070000       0.75280000
H       -1.04030000      -0.14340000       0.15390000
H       -0.07340000      -0.87800000      -1.92920000
H        1.45030000      -0.06720000      -1.57100000
H        0.54300000      -2.79150000      -0.56510000
H        2.15780000      -2.27240000      -1.01750000
H        0.74870000       0.02970000       2.21410000
H        2.23690000      -1.95200000       2.92440000
H        2.55540000      -4.43720000       2.60220000
H        2.04040000      -4.27510000       0.85530000
H        3.75860000      -2.72160000       0.54480000
