18
Properties=species:S:1:pos:R:3 gdb_35250=T pbc="F F F"
C       -0.31280000      -1.21240000       0.26090000
C       -0.16590000      -0.02290000       0.16540000
C       -0.00890000       1.39730000       0.00990000
N        0.59770000       2.15130000       1.13470000
C        1.33320000       2.05400000      -0.12960000
C        2.61780000       1.27670000      -0.10880000
C        3.27660000       0.99190000      -1.47910000
O        4.44360000       1.76520000      -1.13520000
C        3.90940000       2.08410000       0.16570000
H       -0.44260000      -2.26190000       0.35830000
H       -0.82490000       1.88030000      -0.52380000
H        0.14060000       3.05570000       1.21840000
H        1.34780000       2.93630000      -0.77060000
H        2.50190000       0.39640000       0.52350000
H        3.52020000      -0.05800000      -1.68010000
H        2.75030000       1.40520000      -2.35020000
H        3.77000000       3.16510000       0.30080000
H        4.54300000       1.70570000       0.97650000
