15
Properties=species:S:1:pos:R:3 gdb_13446=T pbc="F F F"
O       -0.87550000       1.46150000       0.15880000
C       -0.35950000       0.19490000      -0.06950000
C       -0.31020000      -0.68250000       1.16150000
O       -0.84290000      -0.13350000       2.31650000
C       -1.25680000      -1.02820000       0.02510000
O       -2.64430000      -0.98370000       0.31650000
C       -3.48880000      -0.20920000      -0.36280000
N       -3.16260000       0.74960000      -1.12850000
H       -1.66450000       1.52850000      -0.42210000
H        0.44250000       0.13750000      -0.80500000
H        0.53770000      -1.33570000       1.34440000
H       -1.06560000       0.78240000       2.08490000
H       -1.02050000      -1.87180000      -0.61760000
H       -4.51190000      -0.52140000      -0.13640000
H       -3.98630000       1.19560000      -1.52250000
