18
Properties=species:S:1:pos:R:3 gdb_9659=T pbc="F F F"
C       -0.03710000       1.57640000      -0.09170000
C       -0.00830000       0.06890000       0.05020000
C        1.29340000      -0.71200000      -0.13070000
C        0.67280000      -0.64200000       1.22290000
C        1.30990000       0.12680000       2.35240000
O        2.22620000      -0.75120000       2.99210000
C       -1.22220000      -0.62900000      -0.44730000
O       -2.18440000      -0.08040000      -0.92550000
H        0.91660000       2.03070000       0.18490000
H       -0.25640000       1.84710000      -1.12830000
H       -0.82400000       2.01600000       0.52870000
H        1.26380000      -1.65090000      -0.67370000
H        2.17850000      -0.11300000      -0.31800000
H        0.17670000      -1.54730000       1.56520000
H        1.82120000       1.02160000       1.96860000
H        0.53220000       0.46790000       3.05390000
H        2.57040000      -0.30630000       3.77240000
H       -1.18360000      -1.74010000      -0.34720000
