18
Properties=species:S:1:pos:R:3 gdb_49446=T pbc="F F F"
O       -0.64580000       0.81520000       0.57960000
C        0.19810000       0.96260000      -0.27080000
C        1.33910000       1.93440000      -0.20970000
C        1.10890000       3.41300000      -0.64460000
C        0.32580000       3.71360000       0.67090000
C        0.65920000       5.14280000       1.07680000
C        2.15710000       5.13580000       0.66600000
N        2.37610000       3.76980000       0.13030000
C        1.56300000       2.82730000       1.02470000
H        0.17710000       0.34790000      -1.20040000
H        2.24650000       1.50720000      -0.64690000
H        0.93140000       3.79270000      -1.65330000
H       -0.68320000       3.33580000       0.82530000
H        0.06580000       5.88200000       0.52990000
H        0.50580000       5.31700000       2.14610000
H        2.39600000       5.86810000      -0.11050000
H        2.83710000       5.30190000       1.50630000
H        1.92110000       2.52760000       2.01110000
