19
Properties=species:S:1:pos:R:3 gdb_53749=T pbc="F F F"
C       -0.19650000       1.45120000      -0.07010000
C       -0.02470000      -0.05150000       0.03660000
O       -0.00600000      -0.63650000       1.09920000
C        0.11740000      -0.75260000      -1.22480000
C        0.23390000      -1.33140000      -2.27840000
C        0.38600000      -2.06690000      -3.52870000
C        0.20240000      -3.56960000      -3.37210000
C       -1.17510000      -4.17250000      -3.43250000
C       -0.20000000      -4.39970000      -4.56290000
H        0.66480000       1.89240000      -0.58340000
H       -1.08120000       1.68700000      -0.67130000
H       -0.29690000       1.88000000       0.92810000
H       -0.33270000      -1.68240000      -4.26500000
H        1.38070000      -1.85070000      -3.94270000
H        0.89720000      -4.02390000      -2.67270000
H       -1.40350000      -5.00010000      -2.77090000
H       -2.01240000      -3.50600000      -3.61240000
H       -0.38440000      -3.88700000      -5.50170000
H        0.24260000      -5.38290000      -4.67660000
