12
Properties=species:S:1:pos:R:3 gdb_1440=T pbc="F F F"
C        0.08870000       1.37200000       0.00780000
O       -0.04940000      -0.05900000       0.00140000
C       -1.31270000      -0.51230000       0.01210000
O       -2.29510000       0.17520000       0.02610000
C       -1.28710000      -2.04140000       0.00390000
C       -2.61680000      -2.63760000       0.01260000
N       -3.65430000      -3.14300000       0.01920000
H        1.16110000       1.56360000      -0.00200000
H       -0.38860000       1.80490000      -0.87430000
H       -0.37080000       1.79520000       0.90390000
H       -0.73180000      -2.37840000      -0.87810000
H       -0.71640000      -2.38730000       0.87260000
