22
Properties=species:S:1:pos:R:3 gdb_114342=T pbc="F F F"
C       -0.09850000       1.58910000       0.02530000
N        0.07620000       0.14920000       0.05760000
C        1.33400000      -0.49240000      -0.30800000
C        2.62110000       0.32820000      -0.36020000
C        3.05500000       0.53970000       1.11720000
C        3.71770000       1.88550000       1.36830000
O        4.12440000       1.92820000       2.72870000
C        1.79390000       0.27640000       1.98710000
C        0.83540000      -0.52270000       1.10780000
H        0.76010000       2.19170000       0.35720000
H       -0.33980000       1.89000000      -0.99960000
H       -0.95150000       1.85180000       0.65970000
H        1.23410000      -1.33610000      -0.98680000
H        3.38860000      -0.20370000      -0.92960000
H        2.46410000       1.28520000      -0.87470000
H        3.79390000      -0.23100000       1.36570000
H        4.57840000       2.00860000       0.69070000
H        3.00560000       2.69770000       1.14150000
H        4.51270000       2.79050000       2.90200000
H        2.04600000      -0.28570000       2.88910000
H        1.34470000       1.21590000       2.33050000
H        0.34250000      -1.39190000       1.53670000
