15
Properties=species:S:1:pos:R:3 gdb_4550=T pbc="F F F"
C       -0.05530000       1.46100000       0.02670000
N       -0.01390000       0.01570000      -0.00070000
C       -0.01190000      -0.77140000      -1.15430000
C        0.09580000      -2.07720000      -0.75580000
O        0.11570000      -3.14240000      -1.61120000
C        0.17280000      -2.11410000       0.67080000
C        0.10430000      -0.79920000       1.08030000
O        0.13940000      -0.22660000       2.31330000
H        0.89570000       1.89840000      -0.30000000
H       -0.85100000       1.82560000      -0.62990000
H       -0.26040000       1.79200000       1.04490000
H       -0.09370000      -0.33050000      -2.13220000
H        0.21480000      -3.94470000      -1.09180000
H        0.25840000      -2.98420000       1.30440000
H        0.14110000      -0.92880000       2.96980000
