16
Properties=species:S:1:pos:R:3 gdb_87333=T pbc="F F F"
C       -0.00510000       1.51430000       0.08550000
C        0.09730000       0.00680000       0.03620000
C        1.42760000      -0.68970000      -0.04730000
C        0.61850000      -0.76010000       1.23840000
O        1.02800000       0.02650000       2.33640000
C        2.11950000      -0.40690000       3.03020000
O        2.55020000       0.20000000       3.95820000
C       -0.02030000      -2.00200000       1.60380000
N       -0.52700000      -3.00180000       1.88910000
H        0.81450000       1.95300000       0.65780000
H        0.02490000       1.92170000      -0.92970000
H       -0.94500000       1.82630000       0.55000000
H       -0.72140000      -0.49340000      -0.47200000
H        1.52430000      -1.59490000      -0.63480000
H        2.31930000      -0.07350000       0.00400000
H        2.53170000      -1.35180000       2.63470000
