15
Properties=species:S:1:pos:R:3 gdb_43755=T pbc="F F F"
O        1.30120000       0.51310000      -0.52090000
C        0.62480000       1.43370000      -0.20180000
O       -0.75960000       1.55120000      -0.34390000
C       -0.68970000       2.94120000       0.09640000
C       -1.50830000       3.92460000      -0.69270000
C       -1.24750000       5.30600000      -0.30730000
C       -1.01760000       6.43800000       0.02210000
C       -0.24670000       2.96830000       1.50820000
C        0.78860000       2.81230000       0.37460000
H       -1.29650000       3.77960000      -1.75930000
H       -2.57220000       3.69010000      -0.55360000
H       -0.82510000       7.44480000       0.30060000
H       -0.22030000       3.94490000       1.98100000
H       -0.46960000       2.13080000       2.16100000
H        1.61520000       3.49210000       0.23230000
