17
Properties=species:S:1:pos:R:3 gdb_65996=T pbc="F F F"
C       -0.08950000       1.76870000       0.42730000
C       -0.03470000       0.28950000       0.08020000
O        0.83240000      -0.00140000      -1.04980000
C        1.64900000      -0.94620000      -0.32400000
C        0.88560000      -0.59900000       0.95450000
O        0.97260000      -0.84800000       2.11610000
C       -1.41270000      -0.31270000      -0.11400000
C       -1.91750000      -0.63430000      -1.45420000
O       -1.44410000      -1.66120000      -0.57600000
H        0.91840000       2.17300000       0.54660000
H       -0.59610000       2.32740000      -0.36570000
H       -0.63670000       1.91720000       1.36330000
H        1.50250000      -1.97820000      -0.66420000
H        2.71480000      -0.69040000      -0.33790000
H       -2.12240000      -0.08770000       0.68280000
H       -2.99090000      -0.63570000      -1.63510000
H       -1.28060000      -0.43770000      -2.31220000
