20
Properties=species:S:1:pos:R:3 gdb_30727=T pbc="F F F"
C       -0.33820000       1.54420000      -0.02210000
C        0.04760000       0.05400000       0.03590000
C        0.78030000      -0.43700000      -1.16900000
C        2.11040000      -0.74750000      -1.34560000
O        3.05030000      -0.64530000      -0.35180000
C        2.32590000      -1.15690000      -2.69570000
C        3.63160000      -1.57900000      -3.29630000
C        1.09610000      -1.08080000      -3.31390000
N        0.17790000      -0.64370000      -2.39760000
H        0.55280000       2.17020000      -0.12580000
H       -0.99080000       1.75450000      -0.87650000
H       -0.86900000       1.84820000       0.88620000
H        0.69030000      -0.12120000       0.90440000
H       -0.85880000      -0.54640000       0.19950000
H        3.85920000      -1.06550000      -0.65720000
H        4.05200000      -2.46600000      -2.80220000
H        3.51230000      -1.83170000      -4.35350000
H        4.39080000      -0.78780000      -3.23670000
H        0.81280000      -1.30630000      -4.32990000
H       -0.80150000      -0.51570000      -2.57810000
