19
Properties=species:S:1:pos:R:3 gdb_53109=T pbc="F F F"
C        0.28900000       1.56610000      -0.38990000
C        0.18020000       0.12430000      -0.22330000
C        0.08670000      -1.07020000      -0.09560000
C       -0.05610000      -2.49560000       0.07980000
C        0.37570000      -3.20700000       1.42610000
C        0.46010000      -2.28120000       2.63230000
C       -0.92390000      -4.06980000       1.37790000
C       -1.46790000      -3.11370000       0.30810000
O       -2.55440000      -2.86260000      -0.11500000
H        1.18080000       1.83700000      -0.96580000
H       -0.58240000       1.96770000      -0.91900000
H        0.35100000       2.07520000       0.57820000
H        0.39030000      -3.03690000      -0.76620000
H        1.29820000      -3.78150000       1.32120000
H       -0.46480000      -1.70790000       2.75940000
H        0.62860000      -2.85720000       3.54800000
H        1.27750000      -1.56320000       2.52090000
H       -0.77370000      -5.07720000       0.97620000
H       -1.51560000      -4.14350000       2.29400000
