18
Properties=species:S:1:pos:R:3 gdb_11538=T pbc="F F F"
C       -0.58830000       1.14700000      -0.47670000
C       -0.07310000      -0.28310000      -0.60700000
C        1.35920000      -0.37710000      -1.10090000
O        2.05800000       0.59260000      -1.28750000
C        1.87210000      -1.78710000      -1.40970000
C        1.56590000      -2.13870000      -2.85300000
C        1.18080000      -3.49380000      -3.26380000
O        0.20350000      -2.45540000      -3.15700000
H        0.03880000       1.72730000       0.20490000
H       -0.57320000       1.65640000      -1.44390000
H       -1.61420000       1.15600000      -0.09850000
H       -0.11930000      -0.81200000       0.35660000
H       -0.68970000      -0.88640000      -1.28710000
H        2.95610000      -1.79690000      -1.26030000
H        1.40690000      -2.52790000      -0.75200000
H        2.04390000      -1.49240000      -3.58960000
H        1.38940000      -3.83520000      -4.27640000
H        1.11160000      -4.27980000      -2.51290000
