24
Properties=species:S:1:pos:R:3 gdb_121937=T pbc="F F F"
C       -0.03340000       1.48200000       0.07710000
C       -0.31610000       0.05030000       0.53870000
C       -1.55160000      -0.54070000      -0.12770000
O       -1.72410000      -1.86600000       0.33680000
C       -2.92680000      -2.50780000      -0.06320000
C       -2.88310000      -2.97220000      -1.52240000
C       -3.15530000      -3.67830000       0.87940000
C       -2.01610000      -4.46270000       1.41090000
N       -2.79450000      -3.57100000       2.29640000
H        0.85590000       1.88460000       0.56990000
H        0.13750000       1.52650000      -1.00420000
H       -0.87110000       2.14940000       0.30770000
H        0.54060000      -0.59650000       0.31730000
H       -0.45680000       0.02180000       1.62540000
H       -2.44360000       0.06290000       0.11180000
H       -1.43230000      -0.52110000      -1.22240000
H       -3.76330000      -1.79780000       0.06160000
H       -2.03890000      -3.65040000      -1.67730000
H       -3.80540000      -3.50360000      -1.77830000
H       -2.78540000      -2.12940000      -2.21240000
H       -4.09980000      -4.18890000       0.70040000
H       -2.13160000      -5.52440000       1.61000000
H       -1.01680000      -4.14840000       1.12710000
H       -2.26080000      -2.71020000       2.40660000
