18
Properties=species:S:1:pos:R:3 gdb_98451=T pbc="F F F"
C       -0.21650000       1.33070000      -0.11350000
O       -0.11550000      -0.10000000      -0.14920000
C        0.73170000      -0.59860000      -1.07260000
O        1.35900000       0.08410000      -1.84010000
C        0.72040000      -2.11990000      -1.04580000
N        0.75630000      -2.59990000       0.31900000
C       -0.32370000      -2.69490000      -2.07000000
O        0.72060000      -3.17120000      -2.92750000
C        1.74890000      -2.76100000      -2.00170000
H        0.75380000       1.77690000       0.11690000
H       -0.56130000       1.71430000      -1.07670000
H       -0.93810000       1.55770000       0.67100000
H        0.03080000      -2.15370000       0.86970000
H        0.59760000      -3.60220000       0.34530000
H       -0.93090000      -3.50740000      -1.64550000
H       -0.98280000      -1.97730000      -2.57400000
H        2.46320000      -2.06850000      -2.45420000
H        2.27550000      -3.61520000      -1.55760000
