18
Properties=species:S:1:pos:R:3 gdb_46716=T pbc="F F F"
O        0.01760000      -0.06300000      -0.05260000
C       -0.03450000       1.14420000       0.01960000
C       -1.32010000       1.93200000       0.15710000
C       -1.07710000       3.22890000       0.96100000
N        0.25710000       3.82440000       0.80620000
C        1.02530000       3.50580000      -0.47440000
C        2.30730000       3.84650000       0.31920000
C        1.42320000       2.94970000       1.21450000
C        1.19200000       2.01170000      -0.02980000
H       -1.63220000       2.19060000      -0.86440000
H       -2.10620000       1.30340000       0.58240000
H       -1.81580000       3.98760000       0.68280000
H       -1.21380000       3.03890000       2.03200000
H        0.70760000       3.88360000      -1.44810000
H        3.24150000       3.41600000      -0.04300000
H        2.39850000       4.88370000       0.64160000
H        1.57820000       2.64540000       2.25140000
H        2.05930000       1.45690000      -0.39590000
