17
Properties=species:S:1:pos:R:3 gdb_87534=T pbc="F F F"
C       -0.02350000       1.56380000       0.00990000
C       -0.00310000       0.05250000       0.04800000
C        1.26140000      -0.71490000      -0.22390000
C        0.68620000      -0.67070000       1.17300000
C        1.30500000      -0.15100000       2.46210000
O        0.23600000      -0.04030000       3.40160000
C        0.85110000      -1.33610000       3.23170000
C        0.24070000      -1.90950000       1.93980000
O       -0.25590000      -2.95090000       1.62590000
H        0.92800000       1.98250000       0.35400000
H       -0.19670000       1.92630000      -1.00880000
H       -0.81510000       1.96290000       0.65170000
H       -0.91860000      -0.43010000      -0.28620000
H        1.20080000      -1.66360000      -0.74690000
H        2.17200000      -0.15050000      -0.40190000
H        2.19410000       0.44710000       2.61700000
H        1.25890000      -1.82270000       4.10940000
