19
Properties=species:S:1:pos:R:3 gdb_91582=T pbc="F F F"
C       -0.18410000       1.49400000      -0.12540000
C        0.06470000      -0.00360000      -0.23160000
C        1.38880000      -0.50300000      -0.92500000
C        1.75640000      -1.20750000       0.38410000
O        1.80750000      -0.19700000       1.40360000
C        0.52520000      -0.74430000       1.04710000
C       -0.31360000      -1.32000000       2.15150000
C       -0.87020000      -0.23590000       3.06060000
O       -2.03670000      -0.10260000       3.32520000
H        0.66730000       1.98770000       0.35180000
H       -0.32550000       1.93890000      -1.11580000
H       -1.08200000       1.70750000       0.46510000
H       -0.80000000      -0.51340000      -0.66890000
H        1.20220000      -1.18730000      -1.75570000
H        2.09350000       0.27150000      -1.23780000
H        2.35240000      -2.09880000       0.54720000
H       -1.14720000      -1.90680000       1.75490000
H        0.32200000      -1.97250000       2.76490000
H       -0.09800000       0.44630000       3.47890000
