19
Properties=species:S:1:pos:R:3 gdb_79075=T pbc="F F F"
C       -0.01620000       1.56280000      -0.07310000
C        0.03690000       0.06840000      -0.00960000
C        0.04930000      -0.90110000      -1.16390000
C        1.25940000      -1.77030000      -1.04730000
C        1.75680000      -1.67230000       0.19020000
C        0.81920000      -0.83020000       1.02030000
C       -0.53280000      -1.64120000       1.19700000
O       -1.31970000      -1.17190000       2.27490000
C       -1.04450000      -0.98830000      -0.07230000
H        0.96910000       1.98950000      -0.29570000
H       -0.70800000       1.89320000      -0.85540000
H       -0.36110000       1.98680000       0.87660000
H       -0.31170000      -0.57020000      -2.13200000
H        1.63950000      -2.38510000      -1.85370000
H        2.59320000      -2.22860000       0.59550000
H        1.20460000      -0.38250000       1.93710000
H       -0.43230000      -2.73630000       1.22330000
H       -0.89640000      -1.46060000       3.09020000
H       -2.09210000      -0.89190000      -0.33310000
