19
Properties=species:S:1:pos:R:3 gdb_92751=T pbc="F F F"
C       -0.14130000       1.48590000      -0.05170000
C       -0.26530000      -0.02740000      -0.05730000
O       -0.59740000      -0.63900000       0.93940000
C        0.03350000      -0.72830000      -1.33590000
C       -0.04200000      -2.05870000      -1.47450000
C        0.33930000      -2.50970000      -2.85510000
C        0.35630000      -1.19280000      -3.67870000
O       -0.87970000      -0.97560000      -4.34860000
C        0.48410000      -0.06960000      -2.62540000
H        0.86410000       1.79460000      -0.36030000
H       -0.84150000       1.92900000      -0.76930000
H       -0.35350000       1.86550000       0.94810000
H       -0.32590000      -2.72850000      -0.67160000
H        1.32570000      -2.99560000      -2.84670000
H       -0.36100000      -3.23970000      -3.28010000
H        1.18600000      -1.17460000      -4.39820000
H       -1.01010000      -1.69460000      -4.97520000
H       -0.13010000       0.78360000      -2.92850000
H        1.51910000       0.28870000      -2.54990000
