16
Properties=species:S:1:pos:R:3 gdb_9104=T pbc="F F F"
C        0.05540000       1.44160000      -0.12370000
N        0.01640000      -0.00560000      -0.10080000
C       -1.07650000      -0.62140000       0.04660000
C       -2.47860000      -0.08960000       0.21900000
O       -1.08780000      -1.98510000       0.06510000
C        0.18630000      -2.60010000      -0.08970000
C       -0.00680000      -4.04980000      -0.04560000
N       -0.11700000      -5.19860000      -0.01610000
H        0.71730000       1.79830000       0.67380000
H        0.49440000       1.77670000      -1.07040000
H       -0.91760000       1.93640000      -0.00540000
H       -2.76870000       0.52020000      -0.64120000
H       -3.18160000      -0.91610000       0.31830000
H       -2.54550000       0.54080000       1.11020000
H        0.64670000      -2.30730000      -1.03950000
H        0.87010000      -2.28390000       0.70550000
