20
Properties=species:S:1:pos:R:3 gdb_49713=T pbc="F F F"
O        0.00190000       0.01270000       0.22840000
C        0.06090000       1.21830000       0.09260000
N        1.18180000       1.92280000      -0.19520000
C        2.57000000       1.45190000      -0.13130000
C        3.19290000       2.25320000      -1.29880000
C        2.39310000       3.59760000      -1.24700000
C        1.43240000       3.36020000      -0.05710000
C        2.24670000       3.41290000       1.26340000
C        3.04440000       2.06850000       1.21140000
H       -0.82940000       1.87800000       0.15290000
H        2.64120000       0.36930000      -0.20150000
H        4.26900000       2.39140000      -1.16910000
H        3.03270000       1.73770000      -2.24840000
H        3.03070000       4.47060000      -1.08740000
H        1.83080000       3.75690000      -2.17010000
H        0.52030000       3.95740000      -0.06650000
H        2.89190000       4.29390000       1.31260000
H        1.57660000       3.44180000       2.12650000
H        2.77520000       1.41660000       2.04570000
H        4.12740000       2.21390000       1.23460000
