20
Properties=species:S:1:pos:R:3 gdb_40252=T pbc="F F F"
C        0.13980000       1.46350000      -0.02690000
O        1.24600000       0.55480000      -0.03590000
C       -0.08980000       0.01470000       0.00530000
C       -0.46260000      -0.69930000       1.28820000
C        0.03250000      -2.15300000       1.23360000
C       -0.64110000      -2.95230000       0.10300000
C       -0.74390000      -2.17350000      -1.20410000
N       -1.85900000      -1.21040000      -1.29760000
C       -0.47550000      -0.70650000      -1.25100000
H        0.02080000       2.04650000       0.88600000
H       -0.01620000       2.01960000      -0.95120000
H       -0.01260000      -0.16660000       2.13110000
H       -1.55130000      -0.67340000       1.41090000
H        1.11800000      -2.13880000       1.07680000
H       -0.14130000      -2.65130000       2.19280000
H       -0.08240000      -3.87830000      -0.07060000
H       -1.65350000      -3.24550000       0.40440000
H       -0.50880000      -2.73230000      -2.10710000
H       -2.21340000      -1.16540000      -2.24890000
H       -0.03860000      -0.29040000      -2.15600000
