18
Properties=species:S:1:pos:R:3 gdb_74722=T pbc="F F F"
C       -0.06450000       1.46010000       0.04970000
C       -0.01830000      -0.02500000      -0.01730000
C       -0.02470000      -0.89260000      -1.03320000
C        0.04350000      -2.26830000      -0.35670000
C       -0.99410000      -2.06760000       0.79810000
C        0.05470000      -0.96960000       1.21640000
C        1.14210000      -1.99760000       0.72510000
C        0.08070000      -0.38670000       2.53820000
N        0.10190000       0.07880000       3.59680000
H        0.81840000       1.86530000       0.55920000
H       -0.11310000       1.89470000      -0.95210000
H       -0.93490000       1.80800000       0.61950000
H       -0.06750000      -0.69790000      -2.09540000
H        0.05160000      -3.16200000      -0.97730000
H       -1.99120000      -1.71370000       0.53130000
H       -1.04120000      -2.90020000       1.50540000
H        1.29160000      -2.82370000       1.42580000
H        2.09340000      -1.57980000       0.39190000
