17
Properties=species:S:1:pos:R:3 gdb_77768=T pbc="F F F"
O       -0.01990000       1.41660000      -0.07970000
C        0.00890000       0.02180000       0.01490000
C       -0.01910000      -0.65840000       1.43730000
C       -1.47340000      -0.13460000       1.49530000
O       -2.24690000       0.34530000       2.25870000
C       -1.39240000      -0.65330000       0.03620000
C       -0.66220000      -1.85340000       0.69220000
C       -0.05100000      -3.07250000       0.08600000
C       -1.13970000      -3.18230000       1.15190000
H        0.86370000       1.75630000       0.09410000
H        0.71640000      -0.44610000      -0.67810000
H        0.75710000      -0.67920000       2.19980000
H       -2.14140000      -0.66580000      -0.75200000
H       -0.31410000      -3.33560000      -0.93350000
H        0.96090000      -3.34440000       0.36850000
H       -0.84810000      -3.52570000       2.13910000
H       -2.12260000      -3.51750000       0.83710000
