12
Properties=species:S:1:pos:R:3 gdb_43566=T pbc="F F F"
O        0.01850000       0.09110000      -0.60020000
C        0.02210000       1.17720000      -0.13450000
O       -1.01800000       1.89410000       0.38130000
C       -0.16440000       3.04600000       0.73240000
C       -0.13780000       3.32130000       2.14710000
C       -0.09870000       3.56500000       3.32170000
C        1.06090000       2.30680000       0.09830000
C        2.20940000       2.00600000       0.92590000
N        3.12740000       1.76600000       1.58450000
H       -0.48460000       3.91510000       0.15340000
H       -0.06060000       3.77370000       4.36350000
H        1.37890000       2.75190000      -0.84810000
