23
Properties=species:S:1:pos:R:3 gdb_68913=T pbc="F F F"
C       -0.10320000       1.51110000      -0.00750000
C        0.04870000       0.00080000      -0.01160000
C        1.43160000      -0.58680000      -0.20430000
C        0.74150000      -0.71840000       1.13770000
C        1.29880000       0.05580000       2.31860000
C        0.24490000      -2.10470000       1.54110000
C       -0.60290000      -2.80240000       0.51710000
C       -1.20840000      -2.17380000      -0.48750000
C       -1.11520000      -0.69280000      -0.71550000
H        0.77680000       2.02270000       0.38830000
H       -0.25910000       1.87760000      -1.02960000
H       -0.96970000       1.82430000       0.58770000
H        1.52850000      -1.47600000      -0.81910000
H        2.26730000       0.10270000      -0.27660000
H        1.76260000       0.99950000       2.02350000
H        0.51670000       0.28140000       3.05390000
H        2.06690000      -0.53720000       2.83010000
H        1.10970000      -2.73340000       1.80020000
H       -0.33050000      -2.01590000       2.47660000
H       -0.72960000      -3.87550000       0.63830000
H       -1.82710000      -2.73620000      -1.18270000
H       -2.05690000      -0.22380000      -0.38770000
H       -1.05670000      -0.48460000      -1.79420000
