23
Properties=species:S:1:pos:R:3 gdb_118839=T pbc="F F F"
C       -0.08510000       1.42240000       0.12040000
C       -0.00640000      -0.06970000       0.46820000
C       -1.35900000      -0.73420000       0.38400000
O       -1.89370000      -0.98220000      -0.92840000
C       -1.62460000      -2.10870000      -0.07850000
C       -0.54360000      -3.06280000      -0.52900000
C       -2.89300000      -2.78270000       0.41090000
O       -2.57860000      -3.56380000       1.54430000
C       -3.67970000      -4.29370000       2.03030000
H        0.89910000       1.89520000       0.18860000
H       -0.46050000       1.55930000      -0.89810000
H       -0.75970000       1.95390000       0.80050000
H        0.69970000      -0.56600000      -0.20300000
H        0.37710000      -0.19790000       1.48880000
H       -2.09640000      -0.30920000       1.07120000
H        0.35570000      -2.54130000      -0.85830000
H       -0.28690000      -3.74240000       0.28810000
H       -0.90890000      -3.66720000      -1.36710000
H       -3.64910000      -2.01840000       0.64930000
H       -3.30820000      -3.41690000      -0.39230000
H       -3.33670000      -4.86750000       2.89470000
H       -4.50170000      -3.63200000       2.34640000
H       -4.07390000      -4.99010000       1.27330000
