12
Properties=species:S:1:pos:R:3 gdb_8618=T pbc="F F F"
O       -0.03870000       1.45440000      -0.05410000
C        0.06330000       0.03450000      -0.11710000
C       -1.42890000      -0.42980000      -0.12040000
O       -1.85850000      -1.34470000      -0.75460000
C        0.77930000      -0.42510000      -1.30750000
C        1.37180000      -0.76990000      -2.29280000
C        0.66100000      -0.51610000       1.10810000
C        1.10810000      -0.94720000       2.13690000
H        0.85240000       1.80840000       0.04760000
H       -2.03870000       0.20030000       0.55840000
H        1.88970000      -1.08510000      -3.16530000
H        1.51750000      -1.33500000       3.03770000
