19
Properties=species:S:1:pos:R:3 gdb_75643=T pbc="F F F"
C        0.10960000       1.61640000       0.10810000
C        0.09140000       0.10060000       0.02650000
C        1.16960000      -0.63110000      -0.88730000
O        1.70540000      -0.32360000      -1.90620000
C        1.21920000      -1.82830000       0.12540000
C        2.01690000      -2.09110000       1.45100000
C        2.16450000      -0.55950000       1.58510000
C        0.68240000      -0.79750000       1.13750000
C        0.62460000      -1.94630000       2.19980000
H        1.06960000       1.97760000       0.48980000
H       -0.03850000       2.05020000      -0.88600000
H       -0.68170000       1.99080000       0.76500000
H       -0.89460000      -0.26890000      -0.28560000
H        0.51570000      -2.61150000      -0.18030000
H        2.77430000      -2.85300000       1.64800000
H        2.30540000      -0.15760000       2.59160000
H        2.83100000      -0.07350000       0.86740000
H       -0.10930000      -2.73680000       2.02440000
H        0.67360000      -1.66660000       3.25610000
