23
Properties=species:S:1:pos:R:3 gdb_79833=T pbc="F F F"
C       -0.28090000       1.54510000       0.04480000
C        0.06780000       0.06010000      -0.01000000
C        0.66760000      -0.57690000      -1.26680000
C        2.18470000      -0.42360000      -1.33830000
C        2.89090000       0.68300000      -0.55850000
C        2.45830000       0.42990000       0.91330000
C        1.27150000      -0.53960000       0.80300000
C        1.58670000      -1.45390000      -0.42390000
C        1.82570000      -2.93350000      -0.42390000
H        0.56370000       2.18910000      -0.21280000
H       -1.08980000       1.77120000      -0.65950000
H       -0.62790000       1.83170000       1.04450000
H       -0.82780000      -0.51370000       0.25710000
H        0.10930000      -0.85460000      -2.15600000
H        2.62030000      -0.76730000      -2.27180000
H        3.97680000       0.60180000      -0.67510000
H        2.61340000       1.68230000      -0.90890000
H        3.27140000      -0.04610000       1.47320000
H        2.19960000       1.35130000       1.44470000
H        1.00410000      -1.02370000       1.74400000
H        0.99790000      -3.47850000       0.04550000
H        1.93310000      -3.31340000      -1.44570000
H        2.74140000      -3.19430000       0.12140000
