18
Properties=species:S:1:pos:R:3 gdb_117526=T pbc="F F F"
C        0.14480000       1.41640000      -0.11570000
O        0.02830000       0.01590000       0.00990000
C        0.74880000      -0.49580000       1.10210000
C        0.58790000      -2.02120000       1.08070000
C        1.17510000      -2.61490000      -0.12040000
N        1.66630000      -3.10450000      -1.04490000
C        1.14030000      -2.68210000       2.37450000
C        1.24780000      -4.18840000       2.37950000
O        1.43040000      -1.99430000       3.32060000
H        1.18950000       1.72300000      -0.27510000
H       -0.44870000       1.71300000      -0.98290000
H       -0.23710000       1.93710000       0.77580000
H        1.81520000      -0.22950000       1.04280000
H        0.36650000      -0.11650000       2.05940000
H       -0.48960000      -2.24130000       1.05670000
H        0.30990000      -4.64640000       2.04730000
H        2.01970000      -4.50720000       1.67130000
H        1.50150000      -4.53190000       3.38250000
