25
Properties=species:S:1:pos:R:3 gdb_104718=T pbc="F F F"
C        0.68940000      -0.46980000       1.47500000
C        0.04220000      -0.17100000       0.11780000
C       -1.40730000      -0.64770000      -0.02830000
C       -2.34040000       0.01740000       0.98010000
O       -2.28560000       1.42500000       0.78630000
C       -1.99220000      -0.57620000      -1.47370000
C       -2.53830000      -2.02400000      -1.31830000
C       -2.34930000      -2.99600000      -2.47340000
C       -1.63980000      -2.19200000      -0.05880000
H        1.74910000      -0.19580000       1.46710000
H        0.21460000       0.09380000       2.28420000
H        0.62600000      -1.53480000       1.72620000
H        0.07540000       0.90740000      -0.07370000
H        0.63480000      -0.64730000      -0.67360000
H       -3.36580000      -0.35870000       0.83540000
H       -2.03740000      -0.25470000       2.00350000
H       -2.88510000       1.84000000       1.41270000
H       -2.71130000       0.22350000      -1.66630000
H       -1.20100000      -0.51780000      -2.22860000
H       -3.59480000      -2.00490000      -1.03020000
H       -1.29880000      -3.03490000      -2.78460000
H       -2.65170000      -4.01230000      -2.19550000
H       -2.94280000      -2.69890000      -3.34560000
H       -0.71570000      -2.73500000      -0.28440000
H       -2.09540000      -2.64860000       0.82600000
