22
Properties=species:S:1:pos:R:3 gdb_6842=T pbc="F F F"
C        0.22320000       1.55090000      -0.28660000
O       -0.30580000       0.29940000      -0.65930000
C        0.66210000      -0.59370000      -1.14140000
C        1.63370000      -1.28280000      -0.14530000
C        1.40940000      -2.60320000      -0.93200000
C        0.12010000      -1.99000000      -1.57070000
C       -1.14300000      -2.38270000      -0.79870000
C       -0.07060000      -2.19950000      -3.06980000
H        0.95220000       1.46420000       0.53320000
H        0.71900000       2.05070000      -1.13420000
H       -0.61090000       2.17160000       0.05010000
H        1.22490000      -0.12750000      -1.96770000
H        2.65400000      -0.89940000      -0.07490000
H        1.19990000      -1.32250000       0.85760000
H        2.19180000      -2.77920000      -1.67590000
H        1.27740000      -3.51580000      -0.34540000
H       -1.01980000      -2.25810000       0.28060000
H       -1.99390000      -1.76680000      -1.10350000
H       -1.38990000      -3.43270000      -0.99250000
H       -0.29210000      -3.24900000      -3.29660000
H       -0.90370000      -1.59580000      -3.44820000
H        0.82870000      -1.92040000      -3.62960000
