16
Properties=species:S:1:pos:R:3 gdb_70180=T pbc="F F F"
O       -0.03880000       1.39020000       0.07180000
C        0.02750000      -0.00570000      -0.00830000
C       -0.47690000      -0.67470000      -1.27840000
C       -1.29380000      -0.73210000      -0.00270000
N       -1.38430000      -1.92180000       0.77770000
C       -0.33510000      -2.56250000       1.39520000
O       -0.47160000      -3.64520000       1.94030000
C        0.95080000      -1.82390000       1.38380000
C        1.11110000      -0.64730000       0.77050000
H        0.58020000       1.75640000      -0.57010000
H       -0.83990000      -0.01110000      -2.05590000
H        0.02200000      -1.57770000      -1.61100000
H       -2.17790000      -0.10550000       0.03780000
H       -2.25220000      -2.43680000       0.78050000
H        1.74840000      -2.30160000       1.94020000
H        2.04990000      -0.10210000       0.83780000
