14
Properties=species:S:1:pos:R:3 gdb_133292=T pbc="F F F"
C       -0.02230000       1.41760000      -0.16370000
N       -0.00710000      -0.03490000      -0.22840000
C       -1.04500000      -0.66950000       0.11080000
O       -2.19370000      -0.01620000       0.54190000
N       -3.36890000      -0.66730000       0.92820000
C       -3.35510000      -1.95250000       0.87050000
C       -2.24610000      -2.76590000       0.44720000
C       -1.12650000      -2.12400000       0.07990000
F       -0.04940000      -2.76050000      -0.32490000
H        0.94740000       1.79710000      -0.49160000
H       -0.80410000       1.84480000      -0.80530000
H       -0.21550000       1.77660000       0.85560000
H       -4.28810000      -2.41370000       1.17950000
H       -2.31600000      -3.84550000       0.42750000
