21
Properties=species:S:1:pos:R:3 gdb_65262=T pbc="F F F"
C       -0.06280000       1.51310000       0.29650000
C        0.00320000       0.02960000      -0.01510000
C        1.30950000      -0.55100000      -0.49820000
C        0.81360000      -0.85530000       0.89740000
C       -1.29330000      -0.52200000      -0.58300000
C       -1.67770000       0.02790000      -1.97180000
O       -2.33920000      -1.06830000      -2.58640000
C       -1.64100000      -2.19660000      -2.13480000
O       -1.22760000      -1.93550000      -0.80470000
H        0.87290000       1.85790000       0.74620000
H       -0.23400000       2.11290000      -0.60550000
H       -0.87200000       1.73520000       1.00280000
H        1.27260000      -1.36030000      -1.21810000
H        2.15330000       0.12090000      -0.61450000
H        1.31810000      -0.38980000       1.73770000
H        0.44860000      -1.85860000       1.08100000
H       -2.10630000      -0.32890000       0.13320000
H       -2.36940000       0.87130000      -1.93920000
H       -0.77760000       0.31480000      -2.53760000
H       -2.31370000      -3.06040000      -2.15340000
H       -0.75580000      -2.39360000      -2.76630000
