23
Properties=species:S:1:pos:R:3 gdb_113354=T pbc="F F F"
C       -0.28320000       1.47320000       0.35500000
C        0.24640000       0.07900000      -0.00690000
C        0.82250000      -0.63020000       1.20050000
C       -0.00930000      -1.48520000       2.09440000
C        1.06840000      -2.15100000       1.24440000
C        0.69470000      -3.07380000       0.09610000
C        0.20020000      -4.44830000       0.56770000
C        2.31300000      -2.51770000       1.97530000
O        2.70050000      -1.99390000       2.99420000
H        0.51290000       2.10350000       0.76530000
H       -0.69110000       1.97950000      -0.52510000
H       -1.07580000       1.40920000       1.10750000
H       -0.56670000      -0.51090000      -0.44390000
H        1.01550000       0.17100000      -0.78460000
H        1.60580000      -0.07530000       1.71180000
H        0.17380000      -1.45060000       3.16260000
H       -1.03710000      -1.67870000       1.80090000
H       -0.07590000      -2.60840000      -0.52460000
H        1.56790000      -3.20350000      -0.55760000
H        0.95990000      -4.96630000       1.16300000
H       -0.69420000      -4.34990000       1.19120000
H       -0.04840000      -5.09000000      -0.28320000
H        2.90900000      -3.32770000       1.49490000
