16
Properties=species:S:1:pos:R:3 gdb_11257=T pbc="F F F"
O       -0.42820000       1.55860000      -0.58110000
C        0.06950000       0.34020000      -0.02540000
C       -1.03250000      -0.67740000       0.36290000
C       -1.06410000      -1.73510000      -0.78400000
C        0.28480000      -1.52250000      -1.46040000
C        0.90400000      -0.42790000      -1.02500000
C       -1.27900000      -3.10140000      -0.32080000
C       -1.44940000      -4.22820000       0.06210000
H       -0.76500000       1.35790000      -1.46140000
H        0.63810000       0.66190000       0.85240000
H       -0.76100000      -1.17930000       1.29480000
H       -1.99300000      -0.18060000       0.51340000
H       -1.86370000      -1.49950000      -1.50240000
H        0.64960000      -2.20770000      -2.21690000
H        1.85650000      -0.05600000      -1.38520000
H       -1.60230000      -5.22280000       0.40080000
