14
Properties=species:S:1:pos:R:3 gdb_34813=T pbc="F F F"
N       -0.02910000      -1.15430000      -0.05350000
C       -0.02460000       0.00100000      -0.02690000
C       -0.05580000       1.45130000      -0.03070000
C       -0.04770000       2.08800000       1.39350000
O        1.38870000       1.80000000       1.46700000
C        1.35470000       2.11460000       0.03460000
C        1.02610000       3.63020000       0.07830000
O       -0.32830000       3.96220000      -0.26280000
C       -0.02340000       3.61030000       1.09530000
H       -0.76820000       1.83680000      -0.75840000
H       -0.62680000       1.70190000       2.22900000
H        2.21530000       1.75580000      -0.52490000
H        1.77590000       4.39970000      -0.05950000
H       -0.19970000       4.36220000       1.85480000
