19
Properties=species:S:1:pos:R:3 gdb_77672=T pbc="F F F"
C        0.01700000       1.61810000       0.12750000
C        0.17500000       0.12930000       0.05280000
O        0.60290000      -0.33570000      -1.20580000
C        1.27290000      -1.59530000      -1.04500000
C        1.70020000      -1.71050000       0.43130000
C        0.76530000      -0.74740000       1.13230000
O        1.16120000      -0.27980000       2.37840000
C       -0.72050000      -0.83680000       0.83390000
O       -1.50300000      -0.33810000       1.88850000
H        0.95150000       2.10780000      -0.16170000
H       -0.77190000       1.97160000      -0.54580000
H       -0.22560000       1.92590000       1.14710000
H        0.59110000      -2.41090000      -1.32090000
H        2.11680000      -1.61660000      -1.74040000
H        1.63390000      -2.73800000       0.80030000
H        2.72480000      -1.35780000       0.58820000
H        0.34740000      -0.12650000       2.87800000
H       -1.13580000      -1.70960000       0.32940000
H       -2.16090000       0.26680000       1.53040000
