18
Properties=species:S:1:pos:R:3 gdb_55544=T pbc="F F F"
N        1.22420000      -0.44440000      -0.34360000
C        0.04550000       0.07740000       0.09550000
N       -0.04510000       1.26810000       0.55340000
N       -1.07270000      -0.78990000      -0.04460000
C       -1.10170000      -2.13260000      -0.34950000
O       -0.10230000      -2.80260000      -0.57170000
C       -2.47050000      -2.72480000      -0.38630000
C       -2.70700000      -3.84470000      -1.38550000
C       -2.60840000      -4.16860000       0.06700000
H        2.04110000       0.07870000      -0.07690000
H        1.27840000      -1.44810000      -0.45140000
H       -1.00090000       1.51160000       0.80110000
H       -1.95610000      -0.35330000       0.16480000
H       -3.30170000      -2.05800000      -0.18240000
H       -3.67680000      -3.87690000      -1.86800000
H       -1.86080000      -4.10050000      -2.01180000
H       -1.69650000      -4.64130000       0.41180000
H       -3.50850000      -4.42980000       0.61100000
