16
Properties=species:S:1:pos:R:3 gdb_47090=T pbc="F F F"
N       -0.20190000       1.19490000       0.21560000
C       -0.09840000      -0.06070000       0.23150000
O        0.98560000      -0.75720000       0.68160000
C        0.85020000      -2.16260000       0.41140000
C       -0.63300000      -2.42020000       0.13030000
O       -1.36890000      -2.79820000       1.28780000
C       -2.15730000      -1.68680000       1.68260000
O       -2.38780000      -0.92280000       0.52510000
C       -1.19470000      -1.02500000      -0.22740000
H        0.64360000       1.63410000       0.58500000
H        1.47100000      -2.41820000      -0.45580000
H        1.20090000      -2.71830000       1.28310000
H       -0.77810000      -3.18430000      -0.63720000
H       -3.11600000      -2.03980000       2.07160000
H       -1.62710000      -1.09480000       2.44750000
H       -1.44130000      -0.86930000      -1.27790000
