19
Properties=species:S:1:pos:R:3 gdb_100358=T pbc="F F F"
O        0.06680000       1.36800000       0.41130000
C        0.05000000      -0.00970000       0.04560000
C       -1.39950000      -0.52920000      -0.02330000
O       -2.10730000      -0.08330000       1.12370000
C       -2.11080000       0.00450000      -1.28900000
O       -1.64010000      -0.58550000      -2.48340000
C       -1.36660000      -2.07670000       0.00460000
C       -2.71100000      -2.70560000      -0.28050000
O       -3.18040000      -2.78880000      -1.39420000
H       -0.07010000       1.89550000      -0.38170000
H        0.55370000      -0.18550000      -0.91210000
H        0.59590000      -0.53490000       0.83570000
H       -1.74260000       0.79060000       1.32540000
H       -3.19130000      -0.12650000      -1.15720000
H       -1.93370000       1.08520000      -1.36490000
H       -2.08650000      -1.44280000      -2.54730000
H       -0.67170000      -2.41910000      -0.76880000
H       -1.00270000      -2.39050000       0.98650000
H       -3.27480000      -3.09600000       0.59060000
