21
Properties=species:S:1:pos:R:3 gdb_119432=T pbc="F F F"
O       -0.09810000       1.48990000       0.08990000
C       -0.01930000       0.07630000       0.19670000
C       -1.37160000      -0.49940000      -0.21580000
C       -1.40790000      -2.00070000      -0.17700000
C       -1.59900000      -2.78910000       1.10900000
C       -2.58320000      -2.95780000      -0.01560000
O       -3.92030000      -2.62160000       0.11350000
C       -2.02810000      -3.89310000      -1.09310000
C       -0.79150000      -2.94160000      -1.22770000
H        0.75340000       1.85860000       0.34180000
H        0.77210000      -0.32880000      -0.45500000
H        0.21580000      -0.23680000       1.22650000
H       -2.14480000      -0.09050000       0.44460000
H       -1.60330000      -0.14270000      -1.22730000
H       -0.91180000      -3.58550000       1.39040000
H       -1.97620000      -2.19990000       1.94000000
H       -4.31760000      -3.19640000       0.77670000
H       -1.83770000      -4.93130000      -0.79920000
H       -2.64780000      -3.88570000      -1.99270000
H       -0.71940000      -2.48690000      -2.21910000
H        0.18020000      -3.37490000      -0.96900000
