20
Properties=species:S:1:pos:R:3 gdb_118534=T pbc="F F F"
C        0.10270000       1.41530000      -0.11450000
O        0.04130000      -0.00010000      -0.03210000
C       -1.25630000      -0.56110000       0.03540000
C       -1.24100000      -1.87140000      -0.75550000
C       -0.95000000      -1.66560000      -2.24470000
O       -0.97690000      -2.88290000      -2.97230000
C       -1.66410000      -0.83450000       1.50630000
C       -1.85900000       0.37200000       2.30600000
N       -2.02660000       1.32910000       2.93210000
H        1.15730000       1.67380000      -0.23480000
H       -0.45430000       1.78890000      -0.98590000
H       -0.28260000       1.90330000       0.78760000
H       -1.98960000       0.12830000      -0.41060000
H       -0.47450000      -2.52810000      -0.32190000
H       -2.20440000      -2.38270000      -0.65060000
H       -1.72870000      -1.03700000      -2.69200000
H        0.00620000      -1.13950000      -2.36370000
H       -0.21110000      -3.40200000      -2.70740000
H       -2.59470000      -1.41240000       1.52880000
H       -0.88540000      -1.44710000       1.97320000
