5
Properties=species:S:1:pos:R:3 gdb_177=T pbc="F F F"
O       -0.07920000       1.25320000       0.00950000
N        1.21130000       1.71310000      -0.00020000
N        1.97370000       0.72390000      -0.01300000
N        1.19420000      -0.44180000      -0.01180000
N       -0.01120000      -0.11520000       0.00160000
