21
Properties=species:S:1:pos:R:3 gdb_66939=T pbc="F F F"
C        0.04860000       1.49610000       0.10210000
C        0.03860000       0.00180000      -0.01310000
C       -0.97820000      -0.87910000       0.74640000
C       -1.06130000      -2.22800000       0.03290000
C        0.46360000      -2.05990000      -0.22250000
C        0.50630000      -1.03470000       0.98750000
C        0.53510000      -0.85030000      -1.16460000
C        0.27770000      -0.77070000      -2.63670000
C        1.66980000      -0.51200000      -2.07700000
H        1.04090000       1.90770000      -0.11520000
H       -0.66520000       1.95860000      -0.59010000
H       -0.22470000       1.81270000       1.11430000
H       -1.71020000      -0.42400000       1.40300000
H       -1.26890000      -3.03650000       0.74000000
H       -1.70730000      -2.32740000      -0.84710000
H        1.11470000      -2.92040000      -0.36750000
H        1.11560000      -0.95570000       1.87660000
H        0.11440000      -1.69390000      -3.18470000
H       -0.27730000       0.07810000      -3.02430000
H        2.04060000       0.50850000      -2.09400000
H        2.43520000      -1.26190000      -2.25240000
