15
Properties=species:S:1:pos:R:3 gdb_18467=T pbc="F F F"
O        0.02890000       1.15930000      -0.56120000
C        0.03040000      -0.08720000       0.12170000
C       -1.37470000      -0.63120000       0.06890000
C       -1.98300000      -1.29070000      -1.13010000
N       -1.02780000      -2.10930000      -1.87940000
C       -0.69480000      -2.87090000      -0.74160000
O        0.10450000      -3.74730000      -0.57530000
C       -1.71580000      -2.12580000       0.11390000
H        0.88580000       1.57530000      -0.42660000
H        0.73780000      -0.79370000      -0.33540000
H        0.32820000       0.02970000       1.17470000
H       -2.08850000      -0.03100000       0.63080000
H       -2.93560000      -1.02090000      -1.56560000
H       -0.33400000      -1.72730000      -2.51260000
H       -2.40210000      -2.54760000       0.83390000
