17
Properties=species:S:1:pos:R:3 gdb_127957=T pbc="F F F"
C       -0.03760000       1.44030000       0.05080000
N       -0.03360000      -0.01000000       0.06420000
C        0.52340000      -0.62550000      -0.90980000
N        1.14280000      -0.01610000      -2.01120000
N        1.74530000      -0.61010000      -3.06640000
N        1.78040000      -1.87560000      -3.11040000
C        1.20270000      -2.60680000      -2.08030000
C        0.58540000      -2.07670000      -0.99860000
C       -0.02920000      -2.88470000       0.09700000
H        0.97820000       1.87040000       0.05520000
H       -0.56810000       1.85810000      -0.82160000
H       -0.54730000       1.80810000       0.94440000
H        1.17120000       0.98990000      -2.07560000
H        1.28600000      -3.68030000      -2.21200000
H        0.08610000      -3.95530000      -0.08610000
H        0.42620000      -2.62750000       1.05890000
H       -1.09270000      -2.64370000       0.19490000
