20
Properties=species:S:1:pos:R:3 gdb_85170=T pbc="F F F"
C        0.25880000       1.63180000       0.19040000
C        0.08320000       0.12480000       0.07940000
C        0.97000000      -0.63080000      -0.95320000
C        1.53230000      -1.40530000       0.25820000
O        2.33070000      -2.28960000       0.43000000
N        0.74800000      -0.67480000       1.12830000
C        0.48770000      -0.77970000       2.52160000
C        1.61370000      -1.19150000       3.42990000
C        1.09580000       0.22160000       3.48430000
H        1.31990000       1.89720000       0.23950000
H       -0.18220000       2.13080000      -0.67880000
H       -0.23350000       2.02200000       1.08670000
H       -0.98180000      -0.12750000      -0.00870000
H        0.43850000      -1.25400000      -1.67460000
H        1.70390000      -0.01190000      -1.47410000
H       -0.50750000      -1.14860000       2.76520000
H        1.37250000      -1.86490000       4.24400000
H        2.57390000      -1.37230000       2.96480000
H        1.71680000       1.00140000       3.05940000
H        0.49980000       0.52710000       4.33710000
