18
Properties=species:S:1:pos:R:3 gdb_23030=T pbc="F F F"
C       -0.07210000       1.53010000       0.02330000
C       -0.00890000       0.02600000       0.00420000
N        0.03010000      -0.72830000       1.04780000
O        0.01870000      -0.00810000       2.24110000
C        0.02300000      -0.69250000      -1.26340000
C        0.01560000      -0.19060000      -2.50280000
C        0.06700000      -1.30240000      -3.50720000
O        0.09810000      -2.50120000      -2.74360000
C        0.08340000      -2.20030000      -1.34960000
H        0.89700000       1.95710000      -0.25840000
H       -0.81080000       1.88910000      -0.69870000
H       -0.33300000       1.89530000       1.01520000
H        0.02250000      -0.70930000       2.90140000
H       -0.01680000       0.85450000      -2.78180000
H       -0.80970000      -1.30290000      -4.17580000
H        0.95870000      -1.24020000      -4.15310000
H        0.98330000      -2.60330000      -0.86400000
H       -0.78320000      -2.67530000      -0.86930000
