18
Properties=species:S:1:pos:R:3 gdb_19184=T pbc="F F F"
C       -0.11530000       1.65610000       0.00130000
C        0.01810000       0.14430000       0.00250000
C        1.17280000      -0.58510000      -0.77900000
C        2.41940000      -0.04590000      -0.08690000
C        2.09340000      -0.07420000       1.21220000
C        0.66980000      -0.62880000       1.21020000
C        0.88540000      -1.80750000       0.19700000
O       -0.28130000      -2.55640000      -0.02570000
H        0.82570000       2.14970000       0.25760000
H       -0.43050000       2.01500000      -0.98510000
H       -0.87580000       1.97660000       0.72240000
H       -0.93780000      -0.32140000      -0.24940000
H        1.16910000      -0.69270000      -1.86470000
H        3.34780000       0.24120000      -0.56030000
H        2.68080000       0.18790000       2.08070000
H        0.15300000      -0.78170000       2.15760000
H        1.75170000      -2.45000000       0.39890000
H       -0.09090000      -3.21660000      -0.69930000
