21
Properties=species:S:1:pos:R:3 gdb_119117=T pbc="F F F"
C       -0.17170000       1.66910000       0.19330000
C       -0.26410000       0.14190000       0.22680000
C        0.89880000      -0.50050000       0.99680000
C        0.79550000      -2.00910000       1.06990000
C        1.11910000      -2.72430000       2.32520000
O       -0.23150000      -2.54110000       1.92630000
C        1.00100000      -2.76290000      -0.23060000
C        0.29950000      -4.09610000      -0.38740000
O        1.68890000      -2.28110000      -1.10310000
H        0.75450000       1.99880000      -0.29020000
H       -1.00930000       2.10490000      -0.35970000
H       -0.18560000       2.09060000       1.20470000
H       -1.20860000      -0.16440000       0.69220000
H       -0.27460000      -0.24670000      -0.79800000
H        1.84860000      -0.24980000       0.51290000
H        0.93000000      -0.10190000       2.01710000
H        1.48560000      -3.74960000       2.30030000
H        1.44610000      -2.13600000       3.18140000
H       -0.78250000      -3.93110000      -0.42950000
H        0.63770000      -4.57120000      -1.30870000
H        0.47450000      -4.75700000       0.46600000
