16
Properties=species:S:1:pos:R:3 gdb_12649=T pbc="F F F"
C       -0.27480000       1.53630000       0.01390000
C        0.12060000       0.06360000      -0.01540000
C        0.96080000      -0.39910000      -1.22090000
N        1.78280000      -1.47450000      -0.66830000
C        1.96240000      -1.40970000       0.69620000
N        2.74470000      -2.03990000       1.47940000
C        0.96140000      -0.37050000       1.18890000
O        0.86240000       0.04030000       2.31220000
H        0.60580000       2.18120000      -0.07150000
H       -0.95840000       1.78220000      -0.80390000
H       -0.76580000       1.76780000       0.96220000
H       -0.78440000      -0.55940000       0.02940000
H        0.34670000      -0.76640000      -2.04860000
H        1.57440000       0.43130000      -1.60090000
H        2.45610000      -1.95040000      -1.24780000
H        3.35260000      -2.68410000       0.96740000
