23
Properties=species:S:1:pos:R:3 gdb_75358=T pbc="F F F"
C        0.45550000       1.35190000      -0.01240000
C        0.08060000      -0.09910000       0.02040000
C       -0.18590000      -0.87460000      -1.03470000
C       -0.54220000      -2.29680000      -0.66850000
C       -0.22320000      -2.34190000       0.83630000
C        1.25850000      -2.61670000       1.22780000
C        1.32370000      -1.25180000       1.96520000
C       -0.04970000      -0.86100000       1.32950000
C       -1.08880000      -0.26790000       2.27690000
H        1.41110000       1.52920000       0.49730000
H        0.54710000       1.71850000      -1.03840000
H       -0.28950000       1.97230000       0.50110000
H       -0.16420000      -0.52760000      -2.06390000
H       -1.59760000      -2.51450000      -0.88590000
H        0.04310000      -3.03630000      -1.23160000
H       -0.93420000      -2.93610000       1.41510000
H        1.43920000      -3.50320000       1.84030000
H        1.91640000      -2.66470000       0.35560000
H        1.25800000      -1.35290000       3.05300000
H        2.17560000      -0.60570000       1.73410000
H       -0.78720000       0.72400000       2.63370000
H       -2.06250000      -0.16320000       1.78490000
H       -1.22160000      -0.90580000       3.15750000
