21
Properties=species:S:1:pos:R:3 gdb_81820=T pbc="F F F"
C       -0.19010000       1.58270000      -0.13310000
C        0.03570000       0.07860000      -0.08960000
C        0.74310000      -0.61220000      -1.26150000
C        2.19160000      -0.20260000      -1.34460000
C        1.78720000      -1.23310000      -0.33090000
C        2.35630000      -2.62050000      -0.27090000
C        1.13740000      -0.52550000       0.88500000
C        1.96380000       0.37930000       1.66170000
C        2.65040000       1.14280000       2.28950000
H        0.73370000       2.12930000      -0.34110000
H       -0.91580000       1.83570000      -0.91380000
H       -0.58030000       1.94850000       0.82230000
H       -0.91240000      -0.42380000       0.12480000
H        0.23660000      -1.06900000      -2.10460000
H        2.72730000      -0.59530000      -2.20350000
H        2.52070000       0.78490000      -1.03330000
H        2.58100000      -2.99680000      -1.27430000
H        3.28860000      -2.64070000       0.30630000
H        1.65840000      -3.32200000       0.20140000
H        0.67410000      -1.25840000       1.55340000
H        3.25770000       1.80860000       2.85100000
