15
Properties=species:S:1:pos:R:3 gdb_48975=T pbc="F F F"
O        0.06750000      -0.04060000       0.21970000
C        0.07500000       1.12120000      -0.10360000
C        1.28940000       1.97780000       0.00160000
C        2.49030000       1.49840000       0.83400000
N        3.35390000       2.70470000       0.80280000
C        2.58100000       3.63980000       0.42520000
C        2.61090000       4.12010000      -1.01160000
C        1.37540000       3.14840000      -1.03060000
N        1.08580000       3.38580000       0.40050000
H       -0.83320000       1.62600000      -0.49760000
H        2.15320000       1.18060000       1.82910000
H        3.05730000       0.67480000       0.39320000
H        2.24160000       5.12750000      -1.21980000
H        3.52080000       3.88960000      -1.56250000
H        0.58110000       3.25230000      -1.76860000
