21
Properties=species:S:1:pos:R:3 gdb_92088=T pbc="F F F"
C       -0.35900000       1.62180000       0.05670000
C       -0.02580000       0.13060000      -0.02660000
O        0.56520000      -0.16570000      -1.30540000
C        1.94600000      -0.35170000      -1.38470000
C        2.92760000       0.79720000      -1.28960000
C        2.80730000      -0.20580000      -0.16380000
O        2.15900000       0.20830000       1.00340000
C        0.86070000      -0.38120000       1.11630000
C        0.33350000      -0.06480000       2.50670000
H        0.53920000       2.21960000       0.23270000
H       -0.81390000       1.94050000      -0.88420000
H       -1.06880000       1.82160000       0.86510000
H       -0.96040000      -0.44450000      -0.01460000
H        2.17940000      -1.14750000      -2.08610000
H        3.81140000       0.76720000      -1.91790000
H        2.53150000       1.78690000      -1.09610000
H        3.61890000      -0.91040000       0.01340000
H        0.95520000      -1.47240000       1.00110000
H        0.31300000       1.01390000       2.68020000
H       -0.67840000      -0.46030000       2.63720000
H        0.98270000      -0.51740000       3.26070000
