18
Properties=species:S:1:pos:R:3 gdb_99002=T pbc="F F F"
C       -1.96060000       0.72560000       1.60790000
O       -2.05130000      -0.48490000       0.85080000
C       -1.22930000      -0.57610000      -0.21030000
N       -0.41800000       0.35850000      -0.50410000
N       -1.39130000      -1.77380000      -0.89010000
C       -2.20910000      -2.88800000      -0.69330000
N       -1.98190000      -3.89440000      -1.44020000
C       -3.32710000      -2.83550000       0.34870000
O       -4.14370000      -3.98650000       0.28050000
H       -2.69310000       0.62070000       2.40900000
H       -0.95500000       0.84890000       2.01630000
H       -2.19160000       1.59020000       0.98150000
H        0.12770000       0.14600000      -1.33460000
H       -0.72520000      -1.93540000      -1.63210000
H       -2.63570000      -4.63720000      -1.19210000
H       -2.89560000      -2.81140000       1.35210000
H       -3.90320000      -1.91150000       0.23190000
H       -4.71020000      -3.90420000      -0.49370000
