15
Properties=species:S:1:pos:R:3 gdb_80222=T pbc="F F F"
C        0.06870000       1.57620000      -0.04480000
C        0.09750000       0.06790000       0.03960000
C        1.30010000      -0.76500000      -0.11460000
O        2.47590000      -0.09120000       0.37910000
C        1.95980000      -0.08220000       1.68110000
O        2.50370000       0.29400000       2.66100000
C        0.64710000      -0.71200000       1.27630000
C       -0.15390000      -1.71600000       1.99600000
O        0.02000000      -2.04160000       3.14220000
H        1.02300000       2.01190000       0.25610000
H       -0.13390000       1.88420000      -1.07550000
H       -0.71930000       1.98470000       0.59350000
H       -0.80260000      -0.42850000      -0.32490000
H        1.45470000      -1.61780000      -0.76130000
H       -0.96080000      -2.16970000       1.37440000
