17
Properties=species:S:1:pos:R:3 gdb_65998=T pbc="F F F"
N       -0.12120000       1.48230000       0.13130000
C       -0.01270000       0.05250000       0.04410000
C        0.89520000      -0.62220000      -1.06680000
N        1.65230000      -1.23150000       0.02600000
C        0.99100000      -0.60920000       1.05560000
O        1.14530000      -0.59860000       2.24540000
C       -1.38730000      -0.58020000       0.12840000
C       -2.47160000       0.01350000       0.91330000
O       -2.44710000       0.12760000      -0.52050000
H        0.77200000       1.94330000       0.00760000
H       -0.77720000       1.82300000      -0.56430000
H        0.40040000      -1.33760000      -1.73140000
H        1.46280000       0.10300000      -1.65970000
H        2.47480000      -1.81580000       0.02960000
H       -1.39810000      -1.65790000      -0.03720000
H       -3.25590000      -0.62890000       1.30890000
H       -2.28300000       0.93740000       1.45170000
