14
Properties=species:S:1:pos:R:3 gdb_5290=T pbc="F F F"
C       -0.02360000       1.49890000       0.00850000
C        0.03570000      -0.01980000       0.00210000
O        1.09370000      -0.61670000      -0.00880000
C       -1.24460000      -0.75290000       0.00950000
C       -2.51800000      -0.25420000       0.02170000
O       -3.42340000      -1.25350000       0.02500000
C       -2.72090000      -2.42860000       0.01490000
C       -1.39080000      -2.18560000       0.00530000
H        0.99120000       1.89760000       0.00140000
H       -0.56760000       1.86730000      -0.86810000
H       -0.55250000       1.86040000       0.89710000
H       -2.92190000       0.74510000       0.02890000
H       -3.32010000      -3.32370000       0.01620000
H       -0.58550000      -2.90150000      -0.00390000
