19
Properties=species:S:1:pos:R:3 gdb_40102=T pbc="F F F"
C       -0.40390000       1.38930000       0.19410000
O        0.94330000       0.96440000      -0.05940000
C       -0.06370000      -0.02660000       0.05430000
C       -0.02240000      -1.13990000       1.10270000
C       -0.42990000      -2.15930000      -0.00430000
C       -1.89900000      -2.59540000      -0.01360000
O       -2.63180000      -1.49890000      -0.55080000
C       -1.83400000      -0.96470000      -1.60130000
C       -0.39730000      -1.00820000      -1.07820000
H       -0.58570000       1.80410000       1.18500000
H       -0.88660000       1.92130000      -0.62520000
H        0.98230000      -1.29910000       1.50230000
H       -0.72590000      -1.03970000       1.93430000
H        0.25810000      -2.99330000      -0.14310000
H       -2.02520000      -3.48960000      -0.64640000
H       -2.30650000      -2.81290000       0.97800000
H       -1.92850000      -1.57720000      -2.51350000
H       -2.20200000       0.04150000      -1.82030000
H        0.36130000      -1.06140000      -1.86070000
