18
Properties=species:S:1:pos:R:3 gdb_125698=T pbc="F F F"
C       -0.16440000       1.49410000      -0.05410000
C       -0.00620000       0.01020000       0.03960000
N        0.21680000      -0.69520000      -1.04450000
O        0.31320000      -2.02440000      -0.61540000
C        0.14440000      -2.07610000       0.71970000
C       -0.06270000      -0.81820000       1.19810000
C        0.21160000      -3.39130000       1.36320000
C       -0.31060000      -4.62540000       0.64760000
C        1.16520000      -4.45380000       0.84370000
H        0.59430000       2.00710000       0.54600000
H       -0.06630000       1.81690000      -1.09230000
H       -1.14480000       1.80750000       0.31960000
H       -0.23050000      -0.52170000       2.22030000
H        0.06410000      -3.34930000       2.43630000
H       -0.83520000      -5.36040000       1.24710000
H       -0.70730000      -4.47890000      -0.35000000
H        1.76210000      -4.19160000      -0.02170000
H        1.66930000      -5.06920000       1.58000000
