17
Properties=species:S:1:pos:R:3 gdb_51964=T pbc="F F F"
O        0.51660000       0.17060000       0.11240000
C        0.59850000       1.34940000       0.26690000
O        0.50210000       2.21930000      -0.76770000
C        0.69740000       3.58760000      -0.47500000
C        2.15000000       3.91900000      -0.11990000
O        2.94250000       3.04000000       0.13820000
C        2.49050000       5.36330000      -0.08380000
C        3.53190000       5.81250000       0.93440000
C        3.90430000       5.75400000      -0.50380000
H        0.72200000       1.85130000       1.24350000
H        0.39050000       4.14220000      -1.36600000
H        0.05500000       3.92510000       0.35340000
H        1.69030000       6.05580000      -0.32230000
H        3.37550000       6.77870000       1.39950000
H        3.91540000       5.03350000       1.58300000
H        4.53720000       4.93530000      -0.82590000
H        4.01030000       6.67780000      -1.06010000
