18
Properties=species:S:1:pos:R:3 gdb_99195=T pbc="F F F"
C       -0.09440000       1.43610000      -0.05300000
C       -0.06860000      -0.01600000       0.03370000
C       -0.05300000      -1.21690000       0.10440000
C        0.00560000      -2.66370000       0.19610000
O       -1.32510000      -3.20270000       0.00510000
C       -1.41040000      -4.54470000       0.06700000
O       -0.47010000      -5.27390000       0.26490000
C       -2.84940000      -5.01020000      -0.14620000
N       -3.04630000      -6.44730000      -0.09760000
H        0.54310000       1.79850000      -0.86660000
H       -1.11120000       1.79700000      -0.24210000
H        0.25400000       1.89740000       0.87730000
H        0.67080000      -3.09050000      -0.56240000
H        0.38210000      -2.99220000       1.17100000
H       -3.47580000      -4.51990000       0.60800000
H       -3.18960000      -4.61720000      -1.11130000
H       -2.44560000      -6.88720000      -0.78960000
H       -2.70920000      -6.79750000       0.79510000
