18
Properties=species:S:1:pos:R:3 gdb_32530=T pbc="F F F"
C       -0.50630000       1.04100000      -0.14340000
N       -0.18220000      -0.37850000      -0.10890000
C        0.70530000      -0.84160000      -1.09410000
C        1.26990000      -0.17690000      -2.14150000
O        1.99680000      -1.04770000      -2.90840000
C        1.88640000      -2.26900000      -2.33200000
C        1.11050000      -2.22180000      -1.21910000
C        0.66320000      -3.32100000      -0.30570000
O       -0.75370000      -3.43390000      -0.24870000
H        0.37790000       1.69340000      -0.06720000
H       -1.01490000       1.26950000      -1.08540000
H       -1.18710000       1.27710000       0.67760000
H        0.10820000      -0.66990000       0.81770000
H        1.24070000       0.84170000      -2.48620000
H        2.40920000      -3.07270000      -2.82500000
H        1.04390000      -4.28580000      -0.65520000
H        1.07860000      -3.16610000       0.70620000
H       -1.10360000      -2.53610000      -0.17990000
