18
Properties=species:S:1:pos:R:3 gdb_14640=T pbc="F F F"
C       -0.00970000       1.49780000       0.00940000
C       -0.00600000       0.04470000      -0.08490000
C        0.01070000      -1.15660000      -0.16820000
C       -0.00870000      -2.61190000      -0.25350000
C       -1.35070000      -3.21730000       0.23930000
C       -1.37010000      -4.67260000       0.15400000
C       -1.35340000      -5.87380000       0.07070000
C       -1.34980000      -7.32690000      -0.02360000
H        0.80900000       1.85920000       0.64170000
H        0.10400000       1.96250000      -0.97640000
H       -0.94700000       1.86630000       0.44130000
H        0.16470000      -2.93450000      -1.28690000
H        0.80890000      -3.03840000       0.33980000
H       -1.52410000      -2.89460000       1.27280000
H       -2.16830000      -2.79070000      -0.35390000
H       -2.16550000      -7.68800000      -0.66000000
H       -0.41060000      -7.69580000      -0.45090000
H       -1.46860000      -7.79160000       0.96150000
