13
Properties=species:S:1:pos:R:3 gdb_62444=T pbc="F F F"
O       -0.08210000       1.38820000      -0.00930000
C       -0.03600000       0.00560000       0.01540000
C        1.02540000      -0.61460000      -0.74230000
N        1.88440000      -1.11830000      -1.33140000
C       -0.47310000      -0.75400000       1.26600000
O       -1.16350000       0.04020000       2.20500000
C       -2.30670000       0.43240000       1.57180000
N       -2.52610000       0.00860000       0.39400000
C       -1.36870000      -0.76470000       0.03830000
H        0.56570000       1.72860000       0.61980000
H        0.10760000      -1.55670000       1.70020000
H       -2.94910000       1.07910000       2.15460000
H       -1.49990000      -1.59250000      -0.64600000
