19
Properties=species:S:1:pos:R:3 gdb_97151=T pbc="F F F"
C        0.09660000       1.40490000       0.07920000
N        0.17570000      -0.04710000       0.06020000
C        0.49990000      -0.63260000      -1.00660000
O        0.81490000      -0.01570000      -2.19100000
C        0.85830000      -0.96090000      -3.27490000
C        0.81240000      -2.32900000      -2.63040000
N        1.92310000      -2.50650000      -1.67900000
C        0.56910000      -2.11620000      -1.18190000
C       -0.21190000      -3.00710000      -0.25940000
H        1.02040000       1.82000000       0.50120000
H       -0.05270000       1.85190000      -0.91090000
H       -0.72240000       1.70780000       0.73890000
H       -0.00590000      -0.79460000      -3.92940000
H        1.77980000      -0.78470000      -3.83720000
H        0.40720000      -3.17580000      -3.17310000
H        2.04240000      -3.50150000      -1.49420000
H        0.13610000      -2.87950000       0.76940000
H       -1.27570000      -2.75390000      -0.27870000
H       -0.10000000      -4.05840000      -0.54380000
