22
Properties=species:S:1:pos:R:3 gdb_105542=T pbc="F F F"
O        0.06550000       1.27520000       0.55280000
C       -0.09030000      -0.12990000       0.41170000
C       -1.54350000      -0.44790000       0.05920000
C       -2.57230000       0.30900000       0.97280000
C       -2.84550000       1.29510000      -0.19560000
C       -2.07440000       0.35650000      -1.16130000
N       -1.58970000      -1.89840000      -0.11000000
C       -1.91360000      -2.73600000       1.03930000
C       -2.86160000      -2.60210000      -0.10190000
H        0.99120000       1.45710000       0.73440000
H        0.55120000      -0.52960000      -0.38710000
H        0.17120000      -0.65210000       1.34640000
H       -3.44640000      -0.29290000       1.23460000
H       -2.16110000       0.74140000       1.88710000
H       -3.89510000       1.47960000      -0.43610000
H       -2.33920000       2.25000000      -0.05290000
H       -1.31670000       0.81680000      -1.79900000
H       -2.73360000      -0.25680000      -1.78130000
H       -1.31240000      -3.63280000       1.16230000
H       -2.19580000      -2.24500000       1.96940000
H       -3.77820000      -2.04390000       0.07700000
H       -2.95680000      -3.39730000      -0.83650000
