18
Properties=species:S:1:pos:R:3 gdb_42339=T pbc="F F F"
O       -0.72800000       0.60190000       1.62690000
C       -0.49600000       1.62280000       1.01600000
C        0.86230000       2.32690000       1.04250000
C        1.96310000       1.62560000       1.85290000
C        2.63750000       1.39710000       0.48580000
O        1.56100000       2.07580000      -0.20990000
N       -1.44880000       2.28620000       0.25990000
C       -1.34670000       2.59120000      -1.15940000
C       -2.36550000       1.62060000      -0.63390000
H        0.73000000       3.40210000       1.21210000
H        2.50890000       2.26440000       2.54730000
H        1.61110000       0.72820000       2.36020000
H        3.59410000       1.90890000       0.33120000
H        2.73190000       0.35370000       0.16530000
H       -1.65670000       3.59170000      -1.44860000
H       -0.48670000       2.19630000      -1.68930000
H       -2.20160000       0.56010000      -0.80410000
H       -3.40590000       1.92310000      -0.55850000
