22
Properties=species:S:1:pos:R:3 gdb_8238=T pbc="F F F"
C       -0.09660000       1.58710000       0.04720000
C       -0.05280000       0.05300000      -0.01700000
C       -1.47220000      -0.53100000      -0.03310000
C        0.75580000      -0.46440000      -1.22180000
C        2.24990000      -0.19100000      -1.17410000
C        3.10670000      -0.63480000      -2.38220000
C        3.56140000       0.83650000      -2.41990000
O        2.61240000       1.19890000      -1.39740000
H        0.90490000       2.02070000       0.06940000
H       -0.61100000       1.99470000      -0.83150000
H       -0.64370000       1.92080000       0.93560000
H        0.44800000      -0.31090000       0.89270000
H       -2.01330000      -0.21820000      -0.93430000
H       -1.45820000      -1.62630000      -0.01720000
H       -2.04910000      -0.18920000       0.83260000
H        0.63650000      -1.55560000      -1.28920000
H        0.35000000      -0.04610000      -2.15330000
H        2.65930000      -0.53420000      -0.21130000
H        3.87650000      -1.38320000      -2.18830000
H        2.51350000      -0.94260000      -3.24650000
H        4.59650000       1.00650000      -2.09470000
H        3.39000000       1.38590000      -3.35270000
