20
Properties=species:S:1:pos:R:3 gdb_38732=T pbc="F F F"
C       -0.08780000       1.48630000       0.05900000
N        1.24640000       0.89980000      -0.00920000
C        2.04530000       0.48260000       1.16280000
C        1.56010000      -0.96720000       1.40100000
C        0.04310000      -0.74530000       1.30380000
C        0.06400000       0.00920000      -0.02910000
C        0.18700000      -0.96090000      -1.18020000
O        1.46560000      -1.59560000      -1.05080000
C        1.90900000      -1.95610000       0.25630000
H       -0.47590000       1.86790000       1.00530000
H       -0.34560000       2.09710000      -0.80440000
H        3.10630000       0.55130000       0.90450000
H        1.87220000       1.10060000       2.05590000
H        1.91450000      -1.39130000       2.34700000
H       -0.53430000      -1.67230000       1.25780000
H       -0.34280000      -0.13970000       2.12870000
H       -0.62380000      -1.70610000      -1.17870000
H        0.20600000      -0.45900000      -2.15080000
H        2.99310000      -2.07810000       0.15990000
H        1.48870000      -2.93580000       0.54190000
