18
Properties=species:S:1:pos:R:3 gdb_6212=T pbc="F F F"
C        0.02990000       1.55220000      -0.02010000
C        0.03750000       0.02310000       0.01200000
O       -1.31640000      -0.46570000      -0.01920000
C        0.75990000      -0.63420000      -1.18450000
C        1.49000000      -1.88130000      -0.62520000
O        2.75900000      -2.13230000      -1.21540000
C        1.54150000      -1.60120000       0.86060000
C        0.78260000      -0.56320000       1.20130000
H        1.04750000       1.95580000      -0.01720000
H       -0.48850000       1.91030000      -0.91460000
H       -0.49140000       1.95500000       0.85690000
H       -1.75070000      -0.18350000       0.79310000
H        0.05380000      -0.86460000      -1.98430000
H        1.51490000       0.04930000      -1.58720000
H        0.91960000      -2.79680000      -0.82160000
H        3.32640000      -1.38090000      -1.00900000
H        2.12590000      -2.21930000       1.53400000
H        0.63860000      -0.18450000       2.20950000
