19
Properties=species:S:1:pos:R:3 gdb_69369=T pbc="F F F"
C        0.35710000       1.59980000       0.23070000
C        0.01890000       0.14830000       0.14090000
C       -1.27360000      -0.50900000      -0.37660000
C       -0.99260000      -1.72480000       0.58540000
C       -0.81560000      -3.08630000      -0.02310000
C       -1.14150000      -4.31860000       0.70680000
O       -2.01340000      -3.82000000      -0.30770000
C        0.29230000      -0.99820000       1.02740000
O        1.07910000      -0.77910000      -0.15340000
H        1.28990000       1.74160000       0.78280000
H        0.48350000       2.03110000      -0.76880000
H       -0.44030000       2.15380000       0.73640000
H       -2.18310000       0.03110000      -0.10430000
H       -1.28420000      -0.72520000      -1.44780000
H       -1.73510000      -1.76700000       1.38730000
H       -0.06220000      -3.14080000      -0.80830000
H       -0.62180000      -5.24510000       0.46610000
H       -1.52470000      -4.25550000       1.72520000
H        0.82630000      -1.06470000       1.96950000
