21
Properties=species:S:1:pos:R:3 gdb_76442=T pbc="F F F"
C       -0.68570000       1.20040000      -1.51590000
C       -0.33920000      -0.06790000      -0.76670000
C        1.07940000      -0.60370000      -0.61830000
C        2.30060000       0.08280000      -1.19310000
C        0.32260000      -0.07680000       0.58430000
C        0.69420000       1.18230000       1.33030000
O       -0.23680000      -1.06030000       1.46300000
C        0.62710000      -1.81480000       2.16960000
O        0.26850000      -2.62490000       2.97200000
H        0.08530000       1.97000000      -1.43150000
H       -0.81870000       0.98930000      -2.58220000
H       -1.62220000       1.62950000      -1.14410000
H       -1.08860000      -0.84870000      -0.86590000
H        1.13760000      -1.68850000      -0.65680000
H        2.23260000       1.17220000      -1.14970000
H        3.20670000      -0.21170000      -0.65260000
H        2.43780000      -0.19480000      -2.24370000
H        1.02110000       1.97520000       0.65590000
H       -0.17010000       1.54910000       1.89270000
H        1.50460000       0.99480000       2.04320000
H        1.68470000      -1.60940000       1.91850000
