16
Properties=species:S:1:pos:R:3 gdb_23116=T pbc="F F F"
C       -0.02790000       1.37870000      -0.00350000
N       -0.03920000      -0.07230000      -0.01750000
C        0.56530000      -0.67480000       0.92330000
N        1.26240000      -0.12220000       2.01130000
C        1.70560000      -1.13330000       2.85650000
C        1.41780000      -2.35740000       2.36700000
C        0.69670000      -2.15520000       1.11930000
N        0.22310000      -2.98920000       0.26270000
O        0.47540000      -4.30110000       0.65690000
H        0.99090000       1.79330000       0.05850000
H       -0.48730000       1.75520000      -0.92030000
H       -0.60350000       1.78630000       0.84310000
H        1.18140000       0.84040000       2.28480000
H        2.22940000      -0.87300000       3.76590000
H        1.68000000      -3.30910000       2.79460000
H        0.07800000      -4.80970000      -0.05850000
