14
Properties=species:S:1:pos:R:3 gdb_1701=T pbc="F F F"
C       -0.25920000       1.64180000      -0.02720000
C        0.04180000       0.14970000      -0.05000000
C        0.84190000      -0.41170000      -1.26240000
C        1.86360000      -0.85650000      -0.19970000
O        1.11470000      -0.20270000       0.85380000
C       -1.17220000      -0.63190000       0.25530000
N       -2.12490000      -1.24630000       0.48000000
H        0.65180000       2.19760000      -0.26250000
H       -1.03310000       1.89030000      -0.75960000
H       -0.60830000       1.94170000       0.96440000
H        0.35420000      -1.20140000      -1.83230000
H        1.18910000       0.37090000      -1.93830000
H        1.92410000      -1.93870000      -0.03960000
H        2.87470000      -0.44700000      -0.28780000
