23
Properties=species:S:1:pos:R:3 gdb_93696=T pbc="F F F"
C       -0.10350000       1.51370000       0.03290000
C        0.00630000      -0.00110000      -0.00910000
C        0.72050000      -0.51460000      -1.25880000
O        0.91920000      -1.91730000      -1.20610000
C        1.59240000      -2.38490000      -0.02250000
C        1.47380000      -3.90560000      -0.07610000
C        3.06460000      -1.94560000      -0.01860000
C        0.84740000      -1.82830000       1.20240000
O        0.72990000      -0.41760000       1.14690000
H        0.88990000       1.97200000       0.00120000
H       -0.68510000       1.88250000      -0.81760000
H       -0.59640000       1.83180000       0.95510000
H       -0.99970000      -0.45540000       0.02240000
H        0.11560000      -0.32810000      -2.15240000
H        1.67540000       0.02070000      -1.37700000
H        1.99860000      -4.29430000      -0.95340000
H        1.90990000      -4.36240000       0.81780000
H        0.42430000      -4.20390000      -0.14790000
H        3.16160000      -0.87200000       0.15610000
H        3.61220000      -2.46160000       0.77640000
H        3.53150000      -2.19350000      -0.97600000
H       -0.15260000      -2.28920000       1.25470000
H        1.38690000      -2.06170000       2.12580000
