19
Properties=species:S:1:pos:R:3 gdb_117586=T pbc="F F F"
O        0.14250000       1.37330000       0.22020000
C        0.08910000      -0.03180000       0.04530000
C       -1.35440000      -0.54140000      -0.00580000
C       -1.47220000      -2.07790000      -0.02500000
C       -2.89000000      -2.46960000       0.04420000
N       -4.00240000      -2.77280000       0.11370000
N       -0.88260000      -2.63990000      -1.24410000
C        0.48340000      -3.15520000      -1.12440000
C       -0.66780000      -4.08650000      -1.24820000
H       -0.20910000       1.78530000      -0.57560000
H        0.64020000      -0.34520000      -0.85200000
H        0.60680000      -0.45670000       0.91350000
H       -1.88840000      -0.15590000       0.86850000
H       -1.85660000      -0.15100000      -0.89830000
H       -0.98970000      -2.48420000       0.88390000
H        1.13140000      -2.95630000      -1.97250000
H        0.97090000      -3.09210000      -0.15330000
H       -0.95420000      -4.64820000      -0.36130000
H       -0.88140000      -4.58330000      -2.18910000
