19
Properties=species:S:1:pos:R:3 gdb_74018=T pbc="F F F"
C        0.04230000       1.43440000      -0.02850000
C       -0.16380000      -0.04700000      -0.00290000
C       -0.30330000      -0.89860000      -1.02730000
C        0.24280000      -1.10570000      -2.42380000
C        0.87440000      -2.41850000      -1.82500000
C       -0.16350000      -2.35320000      -0.64510000
C        0.14580000      -2.29700000       0.83990000
O        1.30730000      -1.55920000       1.20770000
C        0.02510000      -0.87210000       1.24000000
H        1.01480000       1.70790000       0.39960000
H       -0.00630000       1.82580000      -1.04830000
H       -0.72070000       1.95570000       0.56370000
H       -0.52310000      -1.34030000      -3.17050000
H        0.91730000      -0.34710000      -2.82730000
H        0.84660000      -3.30990000      -2.45520000
H        1.88710000      -2.24090000      -1.46030000
H       -1.03990000      -2.97800000      -0.84910000
H       -0.11670000      -3.11240000       1.50890000
H       -0.27990000      -0.54740000       2.23160000
