17
Properties=species:S:1:pos:R:3 gdb_42325=T pbc="F F F"
O       -0.01870000      -0.04030000       0.10610000
C       -0.07770000       1.17460000       0.06600000
C        1.15530000       1.99050000       0.11990000
N        2.14290000       2.58890000       0.16500000
N       -1.21360000       1.89630000      -0.02710000
C       -1.32860000       3.36190000      -0.08780000
C       -2.77330000       3.57030000      -0.56440000
C       -3.52160000       2.37290000       0.04630000
C       -2.51690000       1.21920000      -0.08350000
H       -1.17090000       3.80160000       0.90510000
H       -0.58440000       3.78660000      -0.76510000
H       -3.17360000       4.53710000      -0.25310000
H       -2.81400000       3.52470000      -1.65780000
H       -3.73930000       2.56370000       1.10250000
H       -4.46700000       2.15500000      -0.45430000
H       -2.61720000       0.68870000      -1.03810000
H       -2.58990000       0.47360000       0.71180000
