19
Properties=species:S:1:pos:R:3 gdb_105499=T pbc="F F F"
C       -1.37630000       0.00000000       0.04600000
O        0.03450000       0.10710000      -0.03790000
C        0.61610000      -0.68030000      -1.04930000
C        2.13190000      -0.88640000      -0.80400000
O        1.98550000      -2.31310000      -0.80700000
C        0.54790000      -2.21940000      -0.90650000
C        0.31840000      -0.13400000      -2.45400000
C        0.37460000       1.37450000      -2.60520000
O        0.10020000      -0.87360000      -3.38500000
H       -1.87600000       0.32200000      -0.87920000
H       -1.69330000      -1.02750000       0.26870000
H       -1.69330000       0.65190000       0.86250000
H        2.81580000      -0.53600000      -1.58630000
H        2.44070000      -0.48750000       0.17010000
H        0.05070000      -2.55840000       0.01010000
H        0.16000000      -2.75030000      -1.77920000
H        1.27350000       1.78130000      -2.13080000
H        0.35440000       1.63230000      -3.66450000
H       -0.47790000       1.83920000      -2.10010000
