20
Properties=species:S:1:pos:R:3 gdb_104540=T pbc="F F F"
C        0.33260000       1.39860000       0.66590000
C        0.18080000       0.01380000       0.24110000
C        0.05740000      -1.12410000      -0.13410000
C       -0.07630000      -2.52450000      -0.53400000
C       -1.44360000      -3.12940000      -0.19430000
C       -2.55010000      -2.86620000      -1.19530000
O       -2.73000000      -1.48920000      -1.46610000
C       -1.49810000      -4.36690000       0.62440000
N       -1.89060000      -3.07170000       1.21040000
H        1.36350000       1.61200000       0.96970000
H        0.07440000       2.09280000      -0.14150000
H       -0.31600000       1.62760000       1.51880000
H        0.10100000      -2.62330000      -1.61230000
H        0.70950000      -3.11070000      -0.04040000
H       -2.30370000      -3.33230000      -2.15690000
H       -3.47410000      -3.33200000      -0.82110000
H       -2.82060000      -1.04370000      -0.61610000
H       -2.31250000      -5.07520000       0.49420000
H       -0.55670000      -4.81640000       0.92980000
H       -1.14000000      -2.70590000       1.79240000
