21
Properties=species:S:1:pos:R:3 gdb_72471=T pbc="F F F"
C       -0.05780000       1.50460000      -0.00530000
C        0.00290000      -0.01980000      -0.00520000
C        0.84140000      -0.60480000      -1.16640000
O        1.23880000      -1.90910000      -0.73960000
C        0.90280000      -2.07410000       0.64770000
C        0.77750000      -0.64310000       1.17660000
C       -0.44070000      -2.81310000       0.76520000
C       -1.57660000      -1.92090000       0.32860000
C       -1.38120000      -0.65180000      -0.03020000
H        0.94580000       1.94040000       0.03720000
H       -0.55010000       1.88120000      -0.90940000
H       -0.62350000       1.87490000       0.85590000
H        0.27320000      -0.68920000      -2.09930000
H        1.73140000       0.01550000      -1.35570000
H        1.70590000      -2.65170000       1.11520000
H        1.76320000      -0.17940000       1.29100000
H        0.23860000      -0.57420000       2.12460000
H       -0.39930000      -3.71140000       0.13640000
H       -0.59870000      -3.16660000       1.79500000
H       -2.57510000      -2.35090000       0.30670000
H       -2.21080000      -0.03430000      -0.36610000
