20
Properties=species:S:1:pos:R:3 gdb_115067=T pbc="F F F"
C        0.11270000       1.29850000      -0.11760000
O        0.00280000      -0.08890000       0.09930000
C       -1.32620000      -0.58810000       0.07910000
C       -1.91480000      -0.64630000      -1.34610000
C       -3.17420000      -1.47300000      -1.42220000
C       -3.38930000      -2.51400000      -0.61750000
C       -2.38710000      -2.91120000       0.40410000
N       -0.99400000      -3.10550000      -0.08930000
C       -1.31000000      -1.94320000       0.74760000
H        1.15960000       1.56730000       0.04570000
H       -0.16480000       1.59270000      -1.14010000
H       -0.51260000       1.87100000       0.58640000
H       -1.96580000       0.06790000       0.69670000
H       -2.10890000       0.36800000      -1.70920000
H       -1.14650000      -1.07860000      -1.99870000
H       -3.90290000      -1.21180000      -2.18440000
H       -4.29510000      -3.10720000      -0.69940000
H       -2.72970000      -3.57830000       1.19020000
H       -0.52560000      -3.81370000       0.47050000
H       -0.93810000      -1.93040000       1.76960000
