17
Properties=species:S:1:pos:R:3 gdb_97189=T pbc="F F F"
C        0.07330000       1.42650000       0.10440000
N        0.06080000      -0.02550000       0.02060000
C       -1.05000000      -0.63010000      -0.07580000
C       -1.09790000      -2.14340000      -0.10490000
O       -2.16440000      -2.61940000      -0.90280000
C       -3.41520000      -2.19870000      -0.40840000
C       -3.52480000      -0.68710000      -0.24020000
O       -4.58030000      -0.09790000      -0.19420000
N       -2.31090000      -0.02880000      -0.12970000
H        1.10320000       1.76960000       0.22320000
H       -0.32890000       1.89800000      -0.80470000
H       -0.50250000       1.80630000       0.96250000
H       -0.16640000      -2.51440000      -0.53140000
H       -1.18590000      -2.52400000       0.92750000
H       -4.18070000      -2.51410000      -1.11960000
H       -3.64360000      -2.66400000       0.56640000
H       -2.38210000       0.97760000      -0.06130000
