20
Properties=species:S:1:pos:R:3 gdb_76814=T pbc="F F F"
C        0.11720000       1.63120000       0.15940000
C        0.07230000       0.11750000       0.03880000
C        1.18360000      -0.61780000      -0.88760000
O        2.36510000       0.09930000      -1.14320000
C        1.22890000      -1.75490000       0.21360000
N        2.04410000      -2.07720000       1.53100000
C        2.08100000      -0.55030000       1.68680000
C        0.63070000      -0.77600000       1.17970000
C        0.63600000      -1.95990000       2.20360000
H        1.11540000       1.97140000       0.45000000
H       -0.14100000       2.11540000      -0.79030000
H       -0.59490000       1.98580000       0.91160000
H       -0.91650000      -0.22320000      -0.28720000
H        0.76250000      -1.01040000      -1.82350000
H        2.17050000       0.77460000      -1.80170000
H        0.65360000      -2.62650000      -0.10850000
H        2.19970000      -0.22510000       2.72490000
H        2.80210000      -0.06840000       1.03060000
H       -0.02270000      -2.80760000       1.99700000
H        0.70970000      -1.75270000       3.27580000
