16
Properties=species:S:1:pos:R:3 gdb_17736=T pbc="F F F"
C        0.01960000       1.56760000       0.00830000
C        1.34450000       0.81250000      -0.00790000
C        0.04710000       0.07610000       0.00240000
C       -0.52890000      -0.95530000       0.96980000
C       -1.73360000      -1.25220000       0.01530000
O       -1.53270000      -2.69570000       0.00780000
C       -0.18840000      -2.13300000      -0.00370000
C       -0.54840000      -0.94790000      -0.96100000
H       -0.25870000       2.08050000       0.92380000
H       -0.27710000       2.08740000      -0.89740000
H        1.92600000       0.83160000      -0.92450000
H        1.94440000       0.82470000       0.89680000
H       -0.53090000      -0.98220000       2.05930000
H       -2.74950000      -0.85870000       0.02710000
H        0.66790000      -2.80660000      -0.01490000
H       -0.57240000      -0.96660000      -2.05050000
