21
Properties=species:S:1:pos:R:3 gdb_68686=T pbc="F F F"
C        0.02250000       1.53960000       0.03040000
C       -0.01570000       0.01570000      -0.00350000
C        0.67980000      -0.63020000      -1.22760000
C        0.10250000      -2.04970000      -1.13350000
O        0.75620000      -2.74680000      -0.05940000
C        0.54690000      -2.15730000       1.22160000
C        0.66950000      -0.61820000       1.23970000
C       -1.35690000      -1.74830000      -0.80540000
C       -1.41510000      -0.58810000      -0.15030000
H        1.05340000       1.90650000       0.08500000
H       -0.43740000       1.96430000      -0.86860000
H       -0.51490000       1.93270000       0.90130000
H        0.36340000      -0.14080000      -2.15440000
H        1.77190000      -0.62400000      -1.16780000
H        0.26160000      -2.67360000      -2.01510000
H       -0.44450000      -2.43780000       1.60260000
H        1.29260000      -2.61280000       1.87980000
H        1.72390000      -0.31640000       1.24200000
H        0.22610000      -0.24620000       2.17190000
H       -2.17530000      -2.43470000      -0.98560000
H       -2.29890000      -0.14000000       0.29200000
