17
Properties=species:S:1:pos:R:3 gdb_46739=T pbc="F F F"
O        0.01040000       0.01940000       0.18130000
C       -0.03610000       1.21140000       0.01620000
C       -1.30630000       2.04690000      -0.17470000
C       -0.87480000       3.35620000      -0.87220000
C        0.63060000       3.52800000      -0.56810000
C        1.04960000       4.14700000       0.78500000
O        0.37190000       3.43560000       1.83000000
C        1.55690000       2.85590000       1.27270000
C        1.16710000       2.15130000      -0.05410000
H       -2.06600000       1.47650000      -0.71420000
H       -1.69040000       2.25010000       0.83110000
H       -1.01490000       3.26520000      -1.95430000
H       -1.46300000       4.21730000      -0.54340000
H        1.19900000       3.94980000      -1.39890000
H        1.35890000       5.16240000       1.00520000
H        2.35500000       2.60120000       1.95930000
H        2.01370000       1.71130000      -0.58160000
