19
Properties=species:S:1:pos:R:3 gdb_114824=T pbc="F F F"
O       -0.05860000       1.34130000      -0.48940000
C        0.08500000      -0.02990000      -0.16380000
C       -1.26110000      -0.62480000       0.20280000
O       -2.19780000      -0.48930000      -0.90580000
C       -2.55830000      -1.88630000      -0.84700000
C       -1.73610000      -2.76160000      -1.82300000
C       -0.71270000      -3.06550000      -0.68110000
C       -1.52680000      -2.15320000       0.28080000
O       -1.91790000      -2.67240000       1.51500000
H       -0.75650000       1.38410000      -1.15450000
H        0.53470000      -0.58840000      -0.99870000
H        0.77200000      -0.08630000       0.68870000
H       -1.66110000      -0.12120000       1.09280000
H       -3.63530000      -2.04180000      -0.75760000
H       -2.26280000      -3.64630000      -2.18790000
H       -1.34980000      -2.19920000      -2.67480000
H       -0.76180000      -4.10430000      -0.34580000
H        0.33210000      -2.80510000      -0.86210000
H       -1.12810000      -2.91540000       2.01070000
