18
Properties=species:S:1:pos:R:3 gdb_13006=T pbc="F F F"
C       -0.07580000       1.48190000       0.00410000
C        0.06330000      -0.02060000      -0.00100000
C       -0.80700000      -0.85370000       0.91440000
C        0.69820000      -0.80890000       1.12470000
C        1.43440000      -1.93300000       0.46960000
C        1.30050000      -1.89840000      -0.85720000
C        0.49960000      -0.69160000      -1.31620000
O       -0.56180000      -0.99280000      -2.21410000
H        0.86760000       1.96850000      -0.26950000
H       -0.83570000       1.79980000      -0.71900000
H       -0.37210000       1.85800000       0.98850000
H       -1.43340000      -0.30510000       1.61110000
H       -1.23410000      -1.79200000       0.57150000
H        1.09340000      -0.33020000       2.01410000
H        1.96490000      -2.69310000       1.03310000
H        1.67990000      -2.62880000      -1.56230000
H        1.13380000      -0.00070000      -1.88810000
H       -1.18130000      -1.56100000      -1.74260000
