18
Properties=species:S:1:pos:R:3 gdb_85127=T pbc="F F F"
C       -0.16690000       1.53100000       0.08780000
N       -0.06920000       0.08620000       0.19540000
C       -1.26810000      -0.72220000       0.47840000
C       -0.35650000      -1.68370000       1.23790000
O       -0.41450000      -2.80120000       1.64330000
C        0.77220000      -0.59430000       1.20400000
C        2.14900000      -1.05420000       0.73300000
C        0.83300000       0.04460000       2.58800000
O        0.05030000       0.86480000       2.99750000
H        0.83510000       1.95350000      -0.03760000
H       -0.73880000       1.77580000      -0.81380000
H       -0.64120000       2.01270000       0.95250000
H       -1.99370000      -0.25010000       1.16170000
H       -1.79910000      -1.11440000      -0.39650000
H        2.06260000      -1.57670000      -0.22130000
H        2.82550000      -0.20310000       0.59920000
H        2.59530000      -1.73430000       1.46520000
H        1.66320000      -0.33070000       3.22800000
