17
Properties=species:S:1:pos:R:3 gdb_80004=T pbc="F F F"
O        0.07440000       1.44740000      -0.13110000
C       -0.03050000       0.06850000      -0.04390000
C        0.10680000      -0.66610000       1.32510000
C       -1.08840000      -0.00710000       2.06750000
C       -2.10940000       0.02100000       1.18340000
C       -1.46790000      -0.65340000      -0.01360000
C       -1.63820000      -1.60470000      -1.19610000
O       -0.53620000      -2.41890000      -0.65500000
C       -0.73990000      -1.81640000       0.65580000
H       -0.47780000       1.82000000       0.57020000
H        0.60710000      -0.35030000      -0.82180000
H        1.04390000      -0.77900000       1.87200000
H       -1.06700000       0.36050000       3.08370000
H       -3.11060000       0.40810000       1.30680000
H       -2.57150000      -2.18160000      -1.21750000
H       -1.40410000      -1.22270000      -2.19430000
H       -1.25050000      -2.50380000       1.33570000
