19
Properties=species:S:1:pos:R:3 gdb_17355=T pbc="F F F"
C       -1.42710000      -0.86920000       2.53980000
C       -0.36780000      -1.81900000       2.04030000
O        0.31430000      -1.47620000       0.83140000
C        1.08370000      -1.55490000       2.04350000
C        1.69820000      -0.29060000       2.54370000
C        2.79510000      -0.35460000       3.55810000
N        3.07100000       0.10230000       2.20680000
C        3.88360000      -0.74720000       1.34650000
H       -1.11810000       0.17310000       2.44490000
H       -2.34800000      -1.00080000       1.96210000
H       -1.65950000      -1.07380000       3.59050000
H       -0.65830000      -2.87160000       2.08950000
H        1.73190000      -2.43060000       2.08710000
H        1.02020000       0.55790000       2.57200000
H        2.86180000       0.38910000       4.34810000
H        3.14460000      -1.34810000       3.84200000
H        3.83400000      -1.82240000       1.57780000
H        3.57680000      -0.60530000       0.30600000
H        4.92840000      -0.43500000       1.44200000
