23
Properties=species:S:1:pos:R:3 gdb_120264=T pbc="F F F"
C       -0.07750000       1.52480000      -0.08780000
C        0.14870000       0.02500000       0.00270000
O        0.48170000      -0.45580000      -1.28730000
C        0.70820000      -1.84290000      -1.35180000
C        0.73590000      -2.40010000      -2.76680000
C        1.89250000      -1.82780000      -3.53780000
C        2.15980000      -2.92660000      -2.54990000
C        2.17890000      -2.38770000      -1.11160000
C        3.27950000      -1.41320000      -0.70910000
H        0.83040000       2.02970000      -0.43000000
H       -0.88010000       1.74850000      -0.79620000
H       -0.35230000       1.93020000       0.89070000
H        0.95120000      -0.19790000       0.72290000
H       -0.76060000      -0.48240000       0.36730000
H       -0.01410000      -2.37050000      -0.71330000
H       -0.10270000      -2.87480000      -3.26130000
H        1.93290000      -2.12690000      -4.58030000
H        2.22070000      -0.80970000      -3.35600000
H        2.56880000      -3.88140000      -2.85770000
H        2.14110000      -3.21620000      -0.39680000
H        3.26060000      -0.50690000      -1.31950000
H        3.17750000      -1.10840000       0.33790000
H        4.26510000      -1.87810000      -0.82300000
