20
Properties=species:S:1:pos:R:3 gdb_39692=T pbc="F F F"
C       -0.00070000       1.52510000      -0.15700000
C        1.54770000       1.54360000      -0.26540000
C        1.58170000       0.21410000       0.53970000
C        0.08890000       0.00770000       0.15830000
N        2.50940000      -0.79540000       0.07560000
C        3.31540000      -1.31880000       0.87510000
C        4.40030000      -2.37050000       0.77170000
C        4.57770000      -2.09600000       2.27880000
O        3.51030000      -1.10280000       2.23510000
H       -0.35860000       2.10160000       0.70080000
H       -0.57250000       1.82570000      -1.03740000
H        1.88260000       1.36500000      -1.29080000
H        2.09100000       2.39840000       0.14500000
H        1.67920000       0.41760000       1.61280000
H       -0.57580000      -0.40860000       0.91930000
H        0.01810000      -0.59800000      -0.74930000
H        4.04730000      -3.36760000       0.50340000
H        5.24170000      -2.09890000       0.13210000
H        4.32150000      -2.91600000       2.95420000
H        5.52400000      -1.64020000       2.58050000
