14
Properties=species:S:1:pos:R:3 gdb_133813=T pbc="F F F"
C       -0.77920000       1.43920000      -0.53600000
C       -0.02320000       0.63010000       0.40010000
C        0.12960000      -0.79300000       0.05510000
C        0.08930000      -0.66920000      -1.37660000
C        0.53490000      -1.53420000       2.32730000
O        0.34450000      -0.43230000       2.83000000
C       -0.06900000       0.65900000      -1.68100000
C        0.46320000      -1.79830000       0.90770000
H       -0.57830000       2.50690000      -0.48020000
H       -1.84670000       1.24270000      -0.63900000
H        0.74780000       1.09960000       1.00230000
H        0.27630000      -1.45000000      -2.10580000
H        0.76700000      -2.40600000       2.97430000
H        0.64930000      -2.80150000       0.54070000
