15
Properties=species:S:1:pos:R:3 gdb_20762=T pbc="F F F"
C       -0.14270000       1.46260000       0.02380000
C       -0.01840000      -0.02740000       0.02790000
N        0.35540000      -0.65860000      -1.06050000
O        0.36790000      -2.01680000      -0.72630000
C        0.00720000      -2.15450000       0.55970000
C       -0.04000000      -3.54480000       1.11690000
O       -0.82760000      -3.62080000       2.28780000
C       -0.25790000      -0.93730000       1.10130000
H        0.52260000       1.91210000       0.76810000
H        0.11520000       1.85790000      -0.96030000
H       -1.16430000       1.77050000       0.26930000
H       -0.37830000      -4.23590000       0.33030000
H        0.96640000      -3.86630000       1.40930000
H       -1.72870000      -3.37550000       2.05170000
H       -0.56070000      -0.71920000       2.11150000
