18
Properties=species:S:1:pos:R:3 gdb_8506=T pbc="F F F"
C        0.05580000       1.40710000      -0.14130000
C        0.00140000      -0.08020000      -0.00360000
O        0.53810000      -0.91070000      -1.08280000
C        0.06020000      -1.87480000      -0.09070000
C        0.21080000      -3.33510000      -0.37150000
C        0.52000000      -1.01900000       1.13680000
C       -0.87280000      -1.09660000       1.79750000
C       -1.20420000      -1.03430000       0.29130000
H        1.09180000       1.74530000      -0.24160000
H       -0.49980000       1.73040000      -1.02710000
H       -0.38300000       1.88830000       0.73840000
H        1.26610000      -3.59310000      -0.50390000
H       -0.18980000      -3.92660000       0.45780000
H       -0.32800000      -3.60760000      -1.28430000
H        1.51370000      -1.00830000       1.58720000
H       -1.11840000      -2.02810000       2.31520000
H       -1.17700000      -0.23770000       2.40220000
H       -2.16870000      -1.04120000      -0.21870000
