18
Properties=species:S:1:pos:R:3 gdb_119551=T pbc="F F F"
C       -0.23610000       1.46420000       0.66970000
O       -0.33300000       0.06330000       0.79190000
C        0.79260000      -0.60760000       0.27780000
C        0.66750000      -2.08480000       0.50810000
C       -0.52290000      -2.75330000       1.11420000
N        0.72290000      -2.80510000       1.86950000
C        1.50380000      -3.93080000       1.24120000
C        1.56480000      -3.13340000      -0.07750000
O        2.25110000      -3.17840000      -1.05880000
H       -0.15410000       1.77600000      -0.38310000
H       -1.14680000       1.89050000       1.09600000
H        0.63390000       1.86060000       1.21540000
H        0.89390000      -0.44210000      -0.80870000
H        1.71780000      -0.23490000       0.74830000
H       -1.25720000      -2.06940000       1.52520000
H       -0.92190000      -3.66680000       0.67690000
H        2.49480000      -4.02850000       1.69230000
H        0.99340000      -4.89810000       1.25440000
