15
Properties=species:S:1:pos:R:3 gdb_2374=T pbc="F F F"
C       -0.00290000       1.44120000       0.01810000
C        0.02120000      -0.07080000      -0.03970000
O        1.07840000      -0.68900000      -0.05780000
C       -1.27970000      -0.76910000      -0.03820000
C       -1.38440000      -2.09790000      -0.80290000
C       -1.31350000      -2.14820000       0.67610000
O       -0.21150000      -2.61920000       1.35450000
H        1.01530000       1.83080000       0.03870000
H       -0.53810000       1.84490000      -0.84890000
H       -0.54550000       1.77480000       0.91000000
H       -2.16770000      -0.14970000       0.01750000
H       -2.32620000      -2.29730000      -1.30200000
H       -0.49260000      -2.38620000      -1.34980000
H       -2.22540000      -2.35440000       1.22740000
H        0.57250000      -2.24330000       0.91570000
