18
Properties=species:S:1:pos:R:3 gdb_83487=T pbc="F F F"
C       -0.11930000       1.51650000       0.03180000
C        0.05660000       0.00320000       0.03070000
C        1.08000000      -0.60320000      -0.95660000
C        2.40180000      -0.05170000      -0.41700000
O        2.18440000      -0.05080000       1.00630000
C        0.86050000      -0.59250000       1.20490000
C        0.91200000      -2.04590000       0.77690000
N        0.84950000      -3.07880000       1.49260000
O        1.05660000      -2.01000000      -0.59730000
H        0.80040000       2.02910000       0.32290000
H       -0.42170000       1.87970000      -0.95610000
H       -0.89990000       1.80660000       0.74150000
H       -0.90480000      -0.50460000      -0.09090000
H        0.90260000      -0.50900000      -2.02640000
H        3.24080000      -0.70710000      -0.67270000
H        2.61590000       0.96520000      -0.76610000
H        0.54830000      -0.41460000       2.23000000
H        0.92730000      -3.92250000       0.92040000
