11
Properties=species:S:1:pos:R:3 gdb_21351=T pbc="F F F"
N        0.03220000       1.33110000       0.00930000
C        1.28380000       1.85600000      -0.00000000
C        2.12040000       0.74720000      -0.01420000
N        3.41860000       0.28810000      -0.02930000
N        3.37480000      -1.00020000      -0.03580000
N        2.06450000      -1.43040000      -0.02540000
C        1.24010000      -0.35230000      -0.01160000
N       -0.04980000      -0.03260000       0.00270000
H       -0.83130000       1.84930000       0.02050000
H        1.45250000       2.91980000       0.00410000
H        1.87620000      -2.41780000      -0.02900000
