23
Properties=species:S:1:pos:R:3 gdb_93911=T pbc="F F F"
C       -0.42480000       1.45060000      -0.00790000
C       -0.02190000      -0.04020000      -0.01100000
C        0.66660000      -0.46280000      -1.32500000
C        2.02020000       0.17450000      -1.65560000
C        3.18310000      -0.30800000      -0.79170000
O        4.36530000       0.14570000      -1.44870000
C        3.15460000       0.21270000       0.65320000
C        2.02890000      -0.26960000       1.53620000
C        0.72880000      -0.38330000       1.25890000
H        0.45140000       2.10520000      -0.02380000
H       -1.04320000       1.68840000      -0.88060000
H       -0.99930000       1.69600000       0.89060000
H       -0.95930000      -0.61110000       0.02230000
H        0.78310000      -1.55410000      -1.31890000
H       -0.02650000      -0.23560000      -2.14460000
H        2.27830000      -0.06520000      -2.69290000
H        1.96790000       1.26890000      -1.60100000
H        3.16460000      -1.41090000      -0.76580000
H        5.12270000      -0.13050000      -0.92300000
H        4.10420000      -0.07080000       1.12660000
H        3.16490000       1.31170000       0.61220000
H        2.33340000      -0.53260000       2.54750000
H        0.08980000      -0.71850000       2.07500000
