20
Properties=species:S:1:pos:R:3 gdb_5823=T pbc="F F F"
C       -0.01650000       1.54530000       0.00180000
C       -0.00900000       0.00790000       0.05860000
C        0.70550000      -0.46350000       1.33610000
C       -1.45310000      -0.51950000       0.03520000
C        0.74770000      -0.51150000      -1.20590000
O        2.07440000       0.00800000      -1.29590000
C        0.75970000      -1.97430000      -1.30890000
C        0.81890000      -3.17380000      -1.37500000
H        1.00100000       1.93870000      -0.05320000
H       -0.56570000       1.90540000      -0.87570000
H       -0.50250000       1.95840000       0.89150000
H        0.17700000      -0.10260000       2.22410000
H        0.74750000      -1.55590000       1.38960000
H        1.72830000      -0.07510000       1.38470000
H       -1.97000000      -0.21890000      -0.88340000
H       -1.48410000      -1.61080000       0.09790000
H       -2.01880000      -0.11430000       0.88070000
H        0.22840000      -0.10580000      -2.08400000
H        2.64270000      -0.55150000      -0.75650000
H        0.86130000      -4.23270000      -1.44940000
