14
Properties=species:S:1:pos:R:3 gdb_132972=T pbc="F F F"
C       -0.01510000       1.49220000       0.02670000
N       -0.00090000       0.03510000       0.00990000
C       -0.03910000      -0.68050000      -1.15070000
N       -0.02990000      -1.96420000      -1.25340000
C        0.02350000      -2.77170000      -0.10340000
O        0.03430000      -3.98320000      -0.14720000
C        0.06540000      -2.01970000       1.16140000
F        0.11690000      -2.70970000       2.29200000
C        0.05290000      -0.67370000       1.19500000
H        0.89120000       1.88270000       0.49970000
H       -0.05920000       1.85800000      -0.99980000
H       -0.88940000       1.86450000       0.56970000
H       -0.08070000      -0.07090000      -2.05250000
H        0.08320000      -0.10640000       2.11620000
