20
Properties=species:S:1:pos:R:3 gdb_126799=T pbc="F F F"
C       -0.17820000       1.48370000      -0.01620000
C        0.03960000      -0.03110000      -0.01100000
N        0.78370000      -0.49690000      -1.16800000
N        0.12910000      -0.67890000      -2.33270000
C        1.07050000      -1.05000000      -3.19730000
C        2.34590000      -1.09090000      -2.59510000
N        3.61040000      -1.39510000      -3.16310000
C        2.12730000      -0.71230000      -1.27860000
C        3.10940000      -0.55270000      -0.16730000
H        0.77420000       2.02140000       0.01890000
H       -0.70740000       1.78160000      -0.92480000
H       -0.77480000       1.78430000       0.85080000
H        0.57980000      -0.34470000       0.88670000
H       -0.92140000      -0.55180000      -0.02150000
H        0.80510000      -1.27370000      -4.22150000
H        3.56410000      -1.37860000      -4.17520000
H        3.93650000      -2.31790000      -2.89420000
H        4.11750000      -0.58970000      -0.58860000
H        2.99710000       0.40520000       0.35230000
H        3.03110000      -1.34590000       0.58710000
