23
Properties=species:S:1:pos:R:3 gdb_65650=T pbc="F F F"
C        1.24200000      -0.53390000      -1.09880000
C        0.17770000      -0.08720000      -0.11950000
C        0.49830000       0.00380000       1.34100000
C        0.27420000       1.27080000       0.53580000
O       -1.11550000      -0.57090000      -0.37640000
C       -1.77450000      -0.01540000      -1.49120000
C       -1.69220000      -0.73460000      -2.86910000
C       -3.21240000      -0.46350000      -3.03700000
C       -3.29990000      -0.24470000      -1.50120000
H        2.23040000      -0.19340000      -0.77650000
H        1.26110000      -1.62650000      -1.16850000
H        1.06140000      -0.13180000      -2.10110000
H       -0.28690000      -0.29140000       2.02710000
H        1.50490000      -0.23600000       1.66600000
H        1.12760000       1.90120000       0.30920000
H       -0.65250000       1.80640000       0.70820000
H       -1.52560000       1.05030000      -1.58590000
H       -1.00770000      -0.33960000      -3.62410000
H       -1.48760000      -1.79850000      -2.71960000
H       -3.40460000       0.45800000      -3.59340000
H       -3.82190000      -1.26050000      -3.46670000
H       -3.53120000      -1.17620000      -0.97670000
H       -3.94240000       0.55070000      -1.11670000
