17
Properties=species:S:1:pos:R:3 gdb_46928=T pbc="F F F"
O       -0.01140000       0.24960000      -0.76490000
C       -0.01390000       1.18180000      -0.01720000
O       -1.20110000       1.67640000       0.40980000
C       -1.41840000       2.78870000       1.29680000
C       -0.79750000       4.06390000       0.79610000
C       -0.04150000       4.95620000       1.74800000
C        0.71250000       4.08450000       0.77560000
C        1.38130000       2.82690000       1.25880000
O        1.17040000       1.70870000       0.37760000
H       -2.50710000       2.86710000       1.34040000
H       -1.07290000       2.53500000       2.30360000
H       -1.31130000       4.53470000      -0.03520000
H       -0.05850000       6.02370000       1.56380000
H       -0.02360000       4.68760000       2.79970000
H        1.19050000       4.56880000      -0.06910000
H        2.46830000       2.93500000       1.27290000
H        1.07030000       2.56420000       2.27450000
