21
Properties=species:S:1:pos:R:3 gdb_89572=T pbc="F F F"
C        0.75800000       1.49830000      -0.00430000
C       -0.05660000       0.20810000       0.00210000
C        0.49330000      -0.92840000      -0.91020000
C        1.01890000      -1.68600000       0.35010000
C        0.17360000      -0.71590000       1.23480000
O        0.63510000      -3.05730000       0.42880000
C        1.76290000      -3.88980000       0.67920000
C        2.92910000      -2.94680000       0.75960000
C        2.50250000      -1.70350000       0.57290000
H        1.82290000       1.30830000       0.17320000
H        0.67330000       2.01370000      -0.96750000
H        0.41350000       2.18640000       0.77560000
H       -1.10810000       0.44830000      -0.17840000
H       -0.29790000      -1.51170000      -1.38680000
H        1.23440000      -0.64920000      -1.66530000
H        0.67270000      -0.27580000       2.10350000
H       -0.73790000      -1.21920000       1.56530000
H        1.61300000      -4.45550000       1.61240000
H        1.87280000      -4.62810000      -0.13080000
H        3.94590000      -3.26980000       0.94320000
H        3.10410000      -0.80360000       0.57340000
