15
Properties=species:S:1:pos:R:3 gdb_45944=T pbc="F F F"
O        0.04450000       0.04250000      -0.40170000
C        0.01300000       1.21170000      -0.12200000
C       -1.23210000       2.04050000       0.21330000
C       -0.81730000       3.52130000       0.08720000
C        0.71450000       3.55030000       0.09940000
O        1.41230000       4.52680000       0.18210000
C        1.20550000       2.12780000      -0.01600000
C        2.47310000       1.68710000       0.62420000
O        2.38420000       1.85400000      -0.76980000
H       -2.06340000       1.74690000      -0.43100000
H       -1.52520000       1.79290000       1.24080000
H       -1.13960000       3.94780000      -0.87040000
H       -1.21650000       4.17080000       0.86950000
H        3.05390000       2.43930000       1.15530000
H        2.52900000       0.65800000       0.97540000
