21
Properties=species:S:1:pos:R:3 gdb_17818=T pbc="F F F"
C       -0.00910000       1.54290000      -0.40490000
C       -0.00240000       0.06340000      -0.08380000
C        1.25510000      -0.73540000      -0.11930000
N        0.56410000      -0.50010000       1.14790000
C        1.20780000       0.36160000       2.11810000
C        0.30620000       0.94000000       3.24010000
C        1.43970000       0.62790000       4.25480000
C        2.04150000      -0.35550000       3.21360000
H        0.94800000       2.02380000      -0.19100000
H       -0.21920000       1.68800000      -1.47010000
H       -0.78810000       2.06770000       0.15920000
H       -0.92080000      -0.44500000      -0.37590000
H        1.26370000      -1.76150000      -0.47830000
H        2.17890000      -0.18560000      -0.30150000
H        1.80910000       1.16280000       1.66040000
H       -0.03380000       1.97410000       3.14280000
H       -0.56070000       0.29080000       3.39100000
H        2.08750000       1.49270000       4.42410000
H        1.14990000       0.21950000       5.22500000
H        1.66800000      -1.37320000       3.35600000
H        3.12730000      -0.38490000       3.09460000
