14
Properties=species:S:1:pos:R:3 gdb_124371=T pbc="F F F"
C       -0.01420000       1.54040000      -0.11440000
C       -0.01650000       0.04470000       0.13430000
O       -0.05480000      -0.45950000       1.23570000
N        0.02990000      -0.71320000      -1.02490000
C        0.03800000      -2.09440000      -1.06990000
N        0.08340000      -2.72560000      -2.21570000
O        0.07760000      -4.05800000      -1.89130000
N        0.02850000      -4.24220000      -0.54280000
C        0.00330000      -3.05250000      -0.01170000
H        0.88960000       1.84430000      -0.65280000
H       -0.87870000       1.83610000      -0.71790000
H       -0.05190000       2.05270000       0.84570000
H        0.06090000      -0.24800000      -1.91990000
H       -0.03680000      -2.88690000       1.04980000
