16
Properties=species:S:1:pos:R:3 gdb_25557=T pbc="F F F"
N       -0.51640000       1.13220000       0.23370000
C       -0.62170000      -0.11030000       0.42520000
O       -0.61450000      -0.95440000      -0.62780000
C       -0.84330000      -2.34230000      -0.34280000
C       -2.28380000      -2.69840000      -0.28030000
C       -3.12790000      -3.33880000      -1.13400000
C       -4.41340000      -3.35250000      -0.50300000
C       -4.25220000      -2.71510000       0.68530000
O       -2.96370000      -2.31450000       0.84160000
H       -0.51380000       1.62020000       1.12690000
H       -0.71280000      -0.61780000       1.39470000
H       -0.37280000      -2.89050000      -1.16080000
H       -0.33620000      -2.61480000       0.59200000
H       -2.86710000      -3.74750000      -2.09780000
H       -5.32800000      -3.77750000      -0.88500000
H       -4.91800000      -2.47600000       1.49810000
