16
Properties=species:S:1:pos:R:3 gdb_18508=T pbc="F F F"
O       -0.11830000      -0.05260000       0.25120000
C       -0.06230000       1.14580000       0.08170000
N        1.08070000       1.85790000      -0.13320000
C        2.39320000       1.25770000      -0.15940000
C        3.28650000       1.32870000      -1.43470000
N        4.44610000       1.88570000      -0.64990000
C        3.97540000       3.18300000      -0.14640000
C        3.53060000       1.96590000       0.56580000
H       -0.95710000       1.79950000       0.08360000
H        1.00140000       2.85640000      -0.24550000
H        2.26320000       0.22820000       0.17230000
H        3.53430000       0.35220000      -1.85320000
H        2.94250000       1.99070000      -2.23660000
H        4.75740000       3.76980000       0.32540000
H        3.28450000       3.76650000      -0.75410000
H        3.88130000       1.72310000       1.56370000
