16
Properties=species:S:1:pos:R:3 gdb_82688=T pbc="F F F"
O       -0.04020000       1.48040000       0.14000000
C       -0.02300000       0.07970000       0.08910000
C        0.21890000      -0.73410000       1.39660000
C       -0.82840000      -0.15840000       2.38810000
C       -1.87830000      -0.79650000       1.48020000
C       -0.87960000      -1.74980000       0.89490000
C       -1.38720000      -0.59520000       0.02640000
C       -2.27300000      -0.66120000      -1.08560000
N       -2.98230000      -0.71320000      -1.99920000
H        0.83870000       1.81240000      -0.06670000
H        0.61070000      -0.29580000      -0.72370000
H        1.22800000      -0.98420000       1.71410000
H       -0.78990000      -0.67150000       3.35200000
H       -0.83880000       0.92540000       2.52510000
H       -2.93210000      -0.96190000       1.66050000
H       -0.89500000      -2.80850000       0.68670000
