25
Properties=species:S:1:pos:R:3 gdb_108369=T pbc="F F F"
C       -1.10060000       0.49410000      -0.00610000
C        0.17800000      -0.33220000       0.20050000
C        0.80520000      -0.76040000      -1.10240000
C        0.14730000      -1.83530000      -1.99320000
C        1.55260000      -2.43840000      -2.30430000
C        2.19100000      -1.35080000      -1.43740000
C        1.82000000       0.04550000      -1.89480000
C        1.62820000       0.41240000      -3.35740000
C        2.53920000       1.14690000      -1.12750000
H       -0.88740000       1.42180000      -0.54750000
H       -1.84360000      -0.06330000      -0.58680000
H       -1.55900000       0.76050000       0.95160000
H        0.88820000       0.24390000       0.80210000
H       -0.06350000      -1.22670000       0.79130000
H       -0.46990000      -2.52130000      -1.40640000
H       -0.44950000      -1.48470000      -2.84100000
H        1.67090000      -3.43850000      -1.88080000
H        1.86240000      -2.47450000      -3.35390000
H        3.04130000      -1.50170000      -0.77940000
H        1.12610000      -0.36470000      -3.93640000
H        1.03140000       1.32770000      -3.44980000
H        2.59640000       0.60480000      -3.83510000
H        3.48190000       1.39870000      -1.62690000
H        1.93850000       2.06290000      -1.08040000
H        2.78210000       0.85230000      -0.10340000
