16
Properties=species:S:1:pos:R:3 gdb_33689=T pbc="F F F"
C        0.11710000      -1.18440000      -0.03090000
C        0.04110000       0.01700000       0.00620000
C       -0.06800000       1.42740000       0.02620000
C        0.09510000       2.33380000       1.24230000
C       -0.97910000       3.40170000       1.17810000
N       -1.12090000       3.60280000      -0.27060000
C        0.18100000       3.36700000      -0.92070000
C        1.01800000       2.51040000       0.06760000
C       -0.88250000       2.33010000      -0.96120000
H        0.18870000      -2.24300000      -0.06030000
H        0.46060000       1.90710000       2.16730000
H       -1.93370000       3.07630000       1.60230000
H       -0.67580000       4.33960000       1.65400000
H        0.54900000       4.05810000      -1.66700000
H        2.08950000       2.37680000       0.08090000
H       -1.54830000       1.98700000      -1.74180000
