20
Properties=species:S:1:pos:R:3 gdb_71597=T pbc="F F F"
C        0.00200000       1.49840000      -0.01540000
C       -0.01100000      -0.00190000      -0.06490000
C        0.62780000      -0.94700000      -1.10780000
C        0.06120000      -1.84460000       0.00310000
N        0.61920000      -0.87380000       1.03130000
C       -0.33770000      -0.87750000       2.17470000
C       -1.72640000      -0.93490000       1.49990000
C       -1.23830000      -0.96240000       0.05230000
O       -2.17800000      -0.93820000      -0.97830000
H        1.02930000       1.87540000      -0.00930000
H       -0.51320000       1.91000000      -0.88920000
H       -0.50480000       1.87370000       0.88050000
H        0.13460000      -1.00060000      -2.07830000
H        1.71600000      -0.90740000      -1.17900000
H        0.16010000      -2.92440000       0.13670000
H       -0.12800000      -1.74190000       2.81100000
H       -0.18660000       0.02370000       2.77540000
H       -2.30310000      -1.83010000       1.75970000
H       -2.35430000      -0.06140000       1.70120000
H       -2.83670000      -1.62010000      -0.81030000
