14
Properties=species:S:1:pos:R:3 gdb_130361=T pbc="F F F"
N       -0.04060000       1.35460000       0.02950000
C       -0.06380000       0.01270000      -0.06060000
N       -1.15290000      -0.65470000       0.10730000
C       -1.08050000      -2.03770000       0.06660000
C       -2.27860000      -2.77180000      -0.06380000
N       -2.27530000      -4.08950000      -0.09380000
C       -1.05910000      -4.65100000       0.00460000
N        0.09820000      -4.01460000       0.13810000
N        0.08590000      -2.68460000       0.18040000
H        0.80340000       1.87380000      -0.12710000
H       -0.88810000       1.85120000       0.25290000
H        0.89760000      -0.45590000      -0.28440000
H       -3.22770000      -2.24700000      -0.14060000
H       -1.00480000      -5.73470000      -0.01950000
