16
Properties=species:S:1:pos:R:3 gdb_51850=T pbc="F F F"
O        0.44250000       0.96080000      -1.64000000
C        0.06180000       1.21690000      -0.51660000
N        0.88920000       1.43240000       0.54040000
C        2.30950000       1.20500000       0.43930000
C        3.13300000       2.17360000      -0.41640000
C        4.50100000       2.07230000       0.27170000
O        4.21340000       1.81920000       1.66880000
C        2.95140000       1.36990000       1.81720000
O        2.43420000       1.16650000       2.87950000
H       -1.00540000       1.31920000      -0.24160000
H        0.51480000       1.47400000       1.47900000
H        2.50530000       0.17610000       0.10020000
H        3.15420000       1.90130000      -1.47060000
H        2.72580000       3.18480000      -0.32160000
H        5.09950000       1.23900000      -0.11220000
H        5.09480000       2.98600000       0.22270000
