17
Properties=species:S:1:pos:R:3 gdb_19978=T pbc="F F F"
O        0.10780000       1.40030000      -0.15920000
C        0.04430000       0.01820000       0.04870000
C       -0.12170000      -0.51200000       1.49200000
O       -1.36590000      -1.17300000       1.15210000
C       -1.31290000      -0.70510000      -0.21610000
C       -2.46410000       0.20580000      -0.55950000
C       -3.82250000      -0.03720000      -0.03220000
N       -3.01340000       1.08700000       0.49320000
H       -0.71550000       1.80060000       0.14870000
H        0.89360000      -0.41040000      -0.48670000
H        0.63270000      -1.22570000       1.84120000
H       -0.25740000       0.27220000       2.24780000
H       -1.25910000      -1.54360000      -0.92250000
H       -2.36250000       0.69010000      -1.52850000
H       -4.68960000       0.25200000      -0.61800000
H       -3.96290000      -0.89410000       0.61970000
H       -2.63610000       0.76350000       1.38420000
