19
Properties=species:S:1:pos:R:3 gdb_76178=T pbc="F F F"
C       -0.05330000       1.50560000       0.02640000
C        0.03650000      -0.00120000      -0.04780000
C        0.63930000      -0.72520000      -1.22150000
C        0.00270000      -1.97420000      -1.77210000
O        1.27180000       0.01730000      -2.21010000
C        1.37970000      -0.73480000       0.14060000
N        2.57620000       0.07710000       0.14980000
C        1.39370000      -1.92880000       0.94650000
N        1.43130000      -2.88920000       1.59330000
H        0.73180000       1.99020000      -0.55550000
H       -1.01520000       1.83520000      -0.37880000
H        0.00930000       1.86160000       1.06020000
H       -0.78810000      -0.52390000       0.42920000
H       -0.77690000      -1.70530000      -2.49180000
H        0.74900000      -2.58330000      -2.29040000
H       -0.44880000      -2.57430000      -0.97900000
H        2.01090000       0.47140000      -1.77050000
H        2.65910000       0.61480000       1.00670000
H        3.40380000      -0.50550000       0.07070000
