16
Properties=species:S:1:pos:R:3 gdb_125500=T pbc="F F F"
C       -0.01440000       1.47150000      -0.04950000
C        0.00490000      -0.02040000       0.03340000
N        0.03820000      -0.75000000      -1.06180000
N        0.04050000      -2.05320000      -0.61500000
C       -0.03650000      -3.13110000      -1.49660000
O       -0.01700000      -3.04860000      -2.69270000
C        0.03780000      -2.11620000       0.77090000
N       -0.00840000      -3.33040000       1.44900000
C        0.00730000      -0.82330000       1.21700000
H        0.84920000       1.90710000       0.46480000
H        0.00470000       1.78560000      -1.09440000
H       -0.91360000       1.88010000       0.42450000
H       -0.13090000      -4.08320000      -0.94510000
H        0.71870000      -3.98550000       1.18930000
H       -0.00560000      -3.19940000       2.45150000
H        0.00950000      -0.49080000       2.24310000
