19
Properties=species:S:1:pos:R:3 gdb_119301=T pbc="F F F"
C       -0.13430000       1.36710000      -0.14340000
O       -0.14110000      -0.04120000      -0.11670000
C        0.75750000      -0.61400000      -1.03400000
C        0.67660000      -2.13680000      -0.90600000
C       -0.67850000      -2.69240000      -1.43460000
O       -0.07620000      -3.06760000      -2.68970000
C        1.24550000      -2.85050000      -2.16780000
C        1.13690000      -2.61080000       0.38490000
C        1.53360000      -3.02850000       1.44010000
H        0.85500000       1.77420000       0.11710000
H       -0.41730000       1.75830000      -1.13340000
H       -0.86330000       1.70990000       0.59430000
H        0.49570000      -0.32910000      -2.06730000
H        1.78910000      -0.27580000      -0.84160000
H       -1.04630000      -3.56090000      -0.87620000
H       -1.47940000      -1.95690000      -1.55270000
H        1.86460000      -2.23920000      -2.83510000
H        1.76510000      -3.78880000      -1.94020000
H        1.87580000      -3.38940000       2.37830000
