17
Properties=species:S:1:pos:R:3 gdb_119820=T pbc="F F F"
C        0.01130000       1.42000000      -0.04350000
O       -0.01460000       0.01240000       0.02450000
C        0.61230000      -0.58880000      -1.06460000
C        0.55730000      -2.08450000      -0.94190000
N        0.02650000      -2.75400000       0.00560000
C        0.23010000      -4.16470000      -0.32920000
C        0.98790000      -4.20190000      -1.66280000
O        1.37210000      -5.13180000      -2.32610000
N        1.14100000      -2.84960000      -1.95790000
H        1.04160000       1.80960000      -0.05430000
H       -0.50890000       1.79550000      -0.93880000
H       -0.49960000       1.79280000       0.84630000
H        0.13650000      -0.29750000      -2.02080000
H        1.67290000      -0.28220000      -1.14490000
H        0.80360000      -4.67560000       0.45200000
H       -0.72720000      -4.69030000      -0.41730000
H        1.60570000      -2.50940000      -2.78440000
