17
Properties=species:S:1:pos:R:3 gdb_70839=T pbc="F F F"
O       -0.07980000       1.35330000       0.05680000
C        0.05300000      -0.01850000       0.03140000
C        0.74440000      -0.96130000       1.05140000
C        0.07820000      -1.88900000       0.00120000
O       -0.01750000      -3.26400000      -0.01780000
C       -1.18010000      -0.96980000      -0.02890000
C       -1.67650000      -0.95320000      -1.46890000
O       -0.42750000      -0.92470000      -2.18940000
C        0.52390000      -0.92870000      -1.14830000
H        0.77970000       1.75220000      -0.11530000
H        1.83920000      -0.94700000       1.08200000
H        0.31500000      -0.98330000       2.05510000
H        0.85250000      -3.63370000      -0.20180000
H       -1.89140000      -0.99280000       0.79600000
H       -2.24370000      -1.85090000      -1.74040000
H       -2.26780000      -0.06280000      -1.71150000
H        1.54330000      -0.90870000      -1.53630000
