19
Properties=species:S:1:pos:R:3 gdb_119863=T pbc="F F F"
C        0.00670000       1.42810000      -0.03390000
O       -0.00590000       0.02090000       0.01390000
C        0.62860000      -0.56780000      -1.09650000
C        0.57830000      -2.05410000      -0.98120000
C        0.03550000      -2.80270000      -0.01260000
C        0.18470000      -4.28530000      -0.24850000
C        0.94540000      -4.38040000      -1.58580000
C        1.17760000      -2.92620000      -2.01980000
O        1.74450000      -2.55580000      -3.02410000
H        1.03330000       1.82690000      -0.04460000
H       -0.51850000       1.81100000      -0.92290000
H       -0.50390000       1.78940000       0.86180000
H        0.14920000      -0.25510000      -2.04100000
H        1.68020000      -0.23980000      -1.17460000
H       -0.46430000      -2.39880000       0.85990000
H        0.72630000      -4.76070000       0.57840000
H       -0.79540000      -4.77630000      -0.28600000
H        1.90940000      -4.88980000      -1.49730000
H        0.38340000      -4.90480000      -2.36420000
