16
Properties=species:S:1:pos:R:3 gdb_128123=T pbc="F F F"
C       -0.26540000       1.32950000      -0.15650000
N        0.08870000      -0.07040000       0.03730000
C        0.66410000      -0.76330000      -1.00510000
C        0.75090000      -2.11210000      -1.22570000
C        0.19830000      -3.27770000      -0.47620000
O       -1.09030000      -2.98160000       0.05800000
O        1.46170000      -2.29250000      -2.35370000
N        1.81540000      -1.01980000      -2.82900000
N        1.33910000      -0.15250000      -2.03530000
H        0.62490000       1.89640000      -0.43620000
H       -1.02460000       1.48720000      -0.93720000
H       -0.64420000       1.72520000       0.78840000
H       -0.60580000      -0.62740000       0.51590000
H        0.18830000      -4.16460000      -1.12350000
H        0.81960000      -3.51550000       0.39490000
H       -1.69310000      -2.86500000      -0.68490000
