16
Properties=species:S:1:pos:R:3 gdb_22322=T pbc="F F F"
C        0.00700000       1.46510000      -0.00530000
C       -0.05820000      -0.02260000      -0.00760000
C       -1.11940000      -0.84720000      -0.13910000
C       -0.64130000      -2.21840000      -0.07620000
N       -1.43150000      -3.23280000      -0.15450000
O       -0.78370000      -4.44920000      -0.07750000
C        0.85400000      -2.14420000       0.09150000
N        1.67780000      -3.11580000       0.14670000
N        1.11060000      -0.77160000       0.16920000
H        0.65420000       1.83620000      -0.81000000
H       -0.98790000       1.89140000      -0.14440000
H        0.41640000       1.84230000       0.93970000
H       -2.15120000      -0.55730000      -0.25360000
H       -1.51600000      -5.07280000      -0.14620000
H        2.63500000      -2.77280000       0.26310000
H        2.03850000      -0.38650000       0.12060000
