19
Properties=species:S:1:pos:R:3 gdb_2692=T pbc="F F F"
C       -0.03600000       1.58560000       0.04000000
C       -0.00060000       0.05540000       0.00560000
C        0.70560000      -0.50390000      -1.23410000
C        0.74250000      -2.03400000      -1.27110000
C        1.45600000      -2.58050000      -2.52440000
C        1.49800000      -4.03700000      -2.57170000
C        1.51910000      -5.23890000      -2.58670000
H        0.97600000       2.00570000       0.03730000
H       -0.56250000       1.98960000      -0.83190000
H       -0.54590000       1.95320000       0.93590000
H        0.50100000      -0.32040000       0.90720000
H       -1.02560000      -0.33630000       0.04490000
H        0.20420000      -0.12860000      -2.13760000
H        1.73200000      -0.11260000      -1.27460000
H        1.24980000      -2.41830000      -0.37820000
H       -0.27790000      -2.43430000      -1.24110000
H        0.95380000      -2.20120000      -3.42450000
H        2.48000000      -2.18530000      -2.56250000
H        1.54380000      -6.29990000      -2.61060000
