13
Properties=species:S:1:pos:R:3 gdb_10248=T pbc="F F F"
C        0.02360000       1.52740000       0.00950000
C        0.04660000       0.01140000       0.00170000
O        1.08580000      -0.60110000      -0.01120000
N       -1.20100000      -0.68660000       0.00990000
C       -1.13350000      -2.12160000       0.00180000
O       -2.08270000      -2.84670000       0.00630000
C       -2.44240000      -0.00250000       0.02550000
O       -3.52070000      -0.51960000       0.03330000
H        1.06270000       1.85480000       0.00110000
H       -0.48870000       1.93130000      -0.86850000
H       -0.47150000       1.92230000       0.90140000
H       -0.08630000      -2.44850000      -0.01010000
H       -2.30720000       1.08970000       0.02960000
