19
Properties=species:S:1:pos:R:3 gdb_41486=T pbc="F F F"
C       -0.15420000       1.45380000      -0.08650000
O        1.13510000       1.69100000       0.53110000
C        1.52620000       0.30480000       0.37700000
C        1.36040000      -0.52990000       1.66090000
C       -0.12440000      -0.81160000       1.27290000
C       -0.47020000      -2.22990000       0.80250000
O       -0.03180000      -2.32470000      -0.55380000
C       -0.27130000      -1.05600000      -1.15580000
C        0.08760000      -0.05310000      -0.08480000
H       -0.98670000       1.83300000       0.51900000
H       -0.20500000       1.90680000      -1.08700000
H        2.43220000       0.19380000      -0.22670000
H        1.97980000      -1.43240000       1.66680000
H        1.52220000       0.02650000       2.58650000
H       -0.87520000      -0.40300000       1.95210000
H        0.03060000      -3.02290000       1.36540000
H       -1.55830000      -2.39420000       0.86300000
H        0.34570000      -0.99350000      -2.05690000
H       -1.33030000      -0.94950000      -1.45150000
