17
Properties=species:S:1:pos:R:3 gdb_19435=T pbc="F F F"
C       -0.04100000       1.48600000       0.01640000
N        1.23760000       0.74280000      -0.01680000
C       -0.03570000       0.00690000      -0.01030000
C       -0.33960000      -0.86310000       1.21020000
O       -0.35910000      -2.21630000       0.74790000
C       -0.62150000      -2.21040000      -0.63070000
C       -1.82830000      -1.46680000      -1.13490000
C       -0.44640000      -0.82550000      -1.19190000
H       -0.23200000       2.01900000       0.94490000
H       -0.36820000       2.01060000      -0.87780000
H        1.62770000       0.76460000      -0.95670000
H        0.42980000      -0.76650000       1.97980000
H       -1.31310000      -0.59870000       1.64790000
H       -0.27520000      -3.11460000      -1.11640000
H       -2.25090000      -1.79170000      -2.07950000
H       -2.55590000      -1.08990000      -0.42420000
H        0.01490000      -0.62980000      -2.15380000
