21
Properties=species:S:1:pos:R:3 gdb_79959=T pbc="F F F"
C       -0.11380000       1.56940000      -0.10930000
C        0.04740000       0.07330000       0.04220000
C        1.34080000      -0.69600000      -0.20390000
C        2.61010000       0.08210000      -0.10910000
C        2.81190000       0.54970000       1.12280000
C        1.72000000       0.11320000       2.09560000
C        2.26930000      -0.80450000       3.19500000
O        1.05010000       1.23130000       2.69650000
C        0.73470000      -0.63310000       1.18880000
H        0.78930000       2.11130000       0.17080000
H       -0.36350000       1.81970000      -1.14690000
H       -0.92330000       1.93210000       0.53140000
H       -0.82560000      -0.47960000      -0.30080000
H        1.30500000      -1.59370000      -0.81190000
H        3.25040000       0.26850000      -0.96480000
H        3.62850000       1.19270000       1.43690000
H        3.04050000      -0.29000000       3.78130000
H        1.46250000      -1.10090000       3.87330000
H        2.72170000      -1.70390000       2.76700000
H        1.67780000       1.66540000       3.28460000
H        0.23490000      -1.49490000       1.61720000
