19
Properties=species:S:1:pos:R:3 gdb_63976=T pbc="F F F"
C       -0.02070000       1.50350000       0.20250000
C       -0.02620000      -0.00430000       0.01850000
O       -1.31610000      -0.48140000      -0.34500000
C        1.10450000      -0.67060000      -0.87430000
C        1.17210000      -1.84460000       0.17250000
O        2.37730000      -2.27380000       0.77660000
C        2.34860000      -1.85650000       2.15480000
C        1.25310000      -0.80270000       2.23820000
C        0.53900000      -0.88290000       1.12290000
H        0.96080000       1.86030000       0.52520000
H       -0.26850000       2.00460000      -0.74150000
H       -0.76720000       1.79650000       0.94690000
H       -1.55530000      -0.06180000      -1.17900000
H        0.80490000      -0.92670000      -1.89450000
H        2.02750000      -0.08740000      -0.87380000
H        0.57160000      -2.70280000      -0.15100000
H        2.17650000      -2.72730000       2.80790000
H        3.32870000      -1.43760000       2.41970000
H        1.21300000      -0.05310000       3.01840000
