23
Properties=species:S:1:pos:R:3 gdb_89842=T pbc="F F F"
C        0.07000000       1.62660000       0.02410000
C       -0.01820000       0.10800000       0.14760000
C        0.35510000      -0.67230000      -1.14560000
C        1.05960000      -1.95430000      -0.66390000
C        1.09680000      -3.20800000      -1.48800000
C        2.35930000      -2.39860000      -1.30740000
C        0.90990000      -1.99420000       0.85760000
C        0.89790000      -0.50670000       1.23500000
O        2.20940000       0.04960000       1.23350000
H        1.10050000       1.93740000      -0.17020000
H       -0.56180000       1.99370000      -0.79150000
H       -0.25450000       2.11950000       0.94680000
H       -1.04590000      -0.16420000       0.42290000
H       -0.53560000      -0.89460000      -1.74210000
H        1.01660000      -0.07440000      -1.78330000
H        1.02560000      -4.16240000      -0.97540000
H        0.62030000      -3.19180000      -2.46310000
H        2.72590000      -1.83670000      -2.16130000
H        3.13970000      -2.80900000      -0.67370000
H       -0.04640000      -2.45350000       1.13910000
H        1.70810000      -2.54620000       1.36220000
H        0.51170000      -0.32210000       2.24190000
H        2.65640000      -0.25760000       0.43690000
