15
Properties=species:S:1:pos:R:3 gdb_30906=T pbc="F F F"
O        0.22750000       1.29850000       0.38620000
C       -0.03530000       0.15910000      -0.44070000
C       -1.35010000      -0.46920000      -0.16960000
C       -1.73850000      -1.72720000       0.20440000
O       -0.93240000      -2.79000000       0.42220000
N       -3.10330000      -1.83690000       0.33700000
C       -3.54850000      -0.63470000       0.04960000
O       -4.82990000      -0.23770000       0.06240000
N       -2.57060000       0.22980000      -0.27550000
H        0.15170000       1.00180000       1.29990000
H        0.02860000       0.54970000      -1.46410000
H        0.74010000      -0.61230000      -0.33800000
H       -1.50840000      -3.52410000       0.66550000
H       -5.35220000      -1.00520000       0.32650000
H       -2.67470000       1.21630000      -0.44210000
