18
Properties=species:S:1:pos:R:3 gdb_36698=T pbc="F F F"
N        0.02300000      -1.13430000      -0.14780000
C        0.06010000       0.00570000       0.03360000
C        0.11120000       1.44860000       0.28970000
N        1.28040000       2.05250000      -0.33250000
C        1.37540000       3.47890000      -0.13030000
C        1.65000000       4.10400000       1.31150000
C        2.95340000       4.67130000       0.75100000
N        3.73560000       3.49870000       0.28670000
C        2.69780000       4.09040000      -0.59530000
H       -0.79240000       1.90220000      -0.13790000
H        0.04620000       1.59870000       1.38290000
H        2.13330000       1.62150000       0.01280000
H        0.51290000       3.96740000      -0.59480000
H        0.91600000       4.86650000       1.58100000
H        1.77180000       3.39640000       2.13620000
H        3.44930000       5.59580000       1.01730000
H        4.63800000       3.83750000      -0.04400000
H        2.94970000       4.44700000      -1.58600000
