17
Properties=species:S:1:pos:R:3 gdb_90550=T pbc="F F F"
C        0.41350000       1.53830000      -0.13100000
C        0.05560000       0.07900000       0.02110000
O        0.87930000      -0.81760000      -0.79860000
C        1.20480000      -1.63340000       0.32780000
C        2.48960000      -1.16540000       1.07010000
O        1.72880000      -0.22990000       1.85430000
C        0.48170000      -0.68100000       1.29630000
C        3.15020000      -2.25110000       1.88920000
O        2.96750000      -2.43990000       3.06150000
H        1.43070000       1.72530000       0.21960000
H        0.33590000       1.83480000      -1.18120000
H       -0.27620000       2.15850000       0.45120000
H       -1.00280000      -0.09860000      -0.21460000
H        1.02830000      -2.69860000       0.17020000
H        3.22600000      -0.68670000       0.41130000
H       -0.25810000      -0.93030000       2.05720000
H        3.81530000      -2.90900000       1.28040000
