21
Properties=species:S:1:pos:R:3 gdb_120607=T pbc="F F F"
C       -0.12400000       1.45600000       0.03210000
C       -0.17780000      -0.05890000      -0.18030000
C        0.91340000      -0.56580000      -1.13420000
C        0.86840000      -2.06560000      -1.33090000
C       -0.04050000      -2.69090000      -2.34270000
C        1.45580000      -2.68910000      -2.59870000
O        1.90370000      -1.87030000      -3.63980000
C        2.16810000      -3.98830000      -2.46140000
O        1.91520000      -4.82470000      -1.62700000
H        0.83730000       1.76330000       0.45900000
H       -0.25150000       1.99370000      -0.91410000
H       -0.91200000       1.79050000       0.71360000
H       -0.07980000      -0.57050000       0.78570000
H       -1.15990000      -0.34460000      -0.57690000
H        0.81290000      -0.06820000      -2.10580000
H        1.89720000      -0.27730000      -0.73690000
H        1.05030000      -2.66630000      -0.44300000
H       -0.49120000      -3.65050000      -2.11750000
H       -0.60980000      -2.03310000      -2.99090000
H        2.68370000      -1.39110000      -3.33930000
H        2.97490000      -4.13060000      -3.21550000
