21
Properties=species:S:1:pos:R:3 gdb_92179=T pbc="F F F"
C       -0.29370000       1.52530000       0.02730000
C        0.06340000       0.03730000      -0.01290000
O        0.72900000      -0.33870000      -1.23380000
C        2.12120000      -0.55530000      -1.07320000
C        2.80020000       0.61730000      -0.31720000
C        2.43990000      -0.14800000       0.97050000
C        2.44880000      -1.48700000       0.16610000
C        1.19860000      -1.97100000       0.90670000
C        0.89760000      -0.46610000       1.16770000
H        0.56680000       2.16660000       0.22870000
H       -0.73280000       1.82650000      -0.92800000
H       -1.03490000       1.70260000       0.81470000
H       -0.88210000      -0.52270000      -0.02400000
H        2.49920000      -0.84900000      -2.05380000
H        3.88610000       0.59750000      -0.46070000
H        2.43610000       1.62760000      -0.51240000
H        3.00110000       0.00360000       1.89370000
H        3.33440000      -2.11450000       0.05120000
H        0.44550000      -2.54260000       0.35560000
H        1.46760000      -2.50830000       1.82070000
H        0.44690000      -0.18470000       2.12170000
