20
Properties=species:S:1:pos:R:3 gdb_36877=T pbc="F F F"
C        0.61480000       1.59650000       0.86120000
C        0.41030000       0.10080000       0.67910000
C       -0.57090000      -0.74070000       1.54360000
C       -1.78900000      -0.14540000       0.79660000
C       -0.69210000      -0.52460000      -0.22740000
O       -0.50420000      -1.79860000       0.50740000
N        1.38720000       2.13430000      -0.25660000
C        0.61830000       2.64710000      -1.38660000
C        1.31680000       3.57630000      -0.45590000
H       -0.34140000       2.13130000       0.99270000
H        1.19850000       1.76240000       1.77590000
H        1.36900000      -0.40470000       0.54430000
H       -0.48140000      -1.05340000       2.58490000
H       -2.66750000      -0.79100000       0.77750000
H       -2.04370000       0.90590000       0.94420000
H       -0.74710000      -0.58010000      -1.31490000
H        1.02500000       2.43950000      -2.37210000
H       -0.46870000       2.61100000      -1.32480000
H        0.69460000       4.15670000       0.22420000
H        2.24460000       4.05970000      -0.74810000
