14
Properties=species:S:1:pos:R:3 gdb_4262=T pbc="F F F"
C        0.07340000       1.50140000       0.01950000
C       -0.05030000       0.01320000       0.00320000
C       -1.18240000      -0.70000000      -0.15030000
C       -1.19090000      -2.16580000      -0.15110000
O       -2.20220000      -2.83920000      -0.28820000
C        0.15010000      -2.73640000       0.03110000
C        1.21960000      -1.94170000       0.17600000
O        1.16250000      -0.58840000       0.16790000
H        0.74030000       1.84080000      -0.78020000
H       -0.90380000       1.96710000      -0.11330000
H        0.50290000       1.84130000       0.96800000
H       -2.12700000      -0.18540000      -0.27860000
H        0.26500000      -3.81310000       0.04700000
H        2.23830000      -2.28260000       0.31440000
