20
Properties=species:S:1:pos:R:3 gdb_58555=T pbc="F F F"
C        0.08320000       1.49750000      -0.16870000
N        0.00820000       0.04830000       0.01810000
C        0.74940000      -0.33840000       1.21820000
C       -1.32850000      -0.51690000      -0.05700000
C       -2.16660000       0.06140000      -1.19880000
C       -1.42470000      -2.06740000       0.01790000
O       -2.25190000      -1.97860000       1.21880000
C       -2.15810000      -0.60720000       1.26080000
O       -2.59180000       0.12510000       2.09180000
H        1.13590000       1.79260000      -0.13460000
H       -0.30540000       1.78770000      -1.14560000
H       -0.45320000       2.06750000       0.60840000
H        0.33250000       0.09610000       2.14240000
H        0.77080000      -1.42400000       1.33400000
H        1.78450000      -0.00010000       1.11930000
H       -1.61630000      -0.00170000      -2.14280000
H       -3.09630000      -0.50470000      -1.30110000
H       -2.43660000       1.10300000      -1.01380000
H       -1.97090000      -2.54830000      -0.79600000
H       -0.49740000      -2.60360000       0.21960000
