18
Properties=species:S:1:pos:R:3 gdb_22836=T pbc="F F F"
O        0.26980000       1.17710000      -0.60060000
N        0.07360000      -0.21220000      -0.59410000
C       -1.01850000      -0.55580000      -0.00670000
C       -1.27510000      -2.04410000       0.04230000
C       -1.40450000      -2.57430000       1.45280000
C       -2.30930000      -2.16870000       2.33900000
C       -3.36960000      -1.11580000       2.12370000
C       -3.01830000       0.13170000       1.35510000
C       -2.01180000       0.38410000       0.50780000
H        1.07920000       1.26020000      -1.11500000
H       -2.19790000      -2.25760000      -0.51580000
H       -0.45820000      -2.54240000      -0.48290000
H       -0.69760000      -3.34640000       1.74430000
H       -2.32320000      -2.64170000       3.31810000
H       -4.25260000      -1.57950000       1.64830000
H       -3.74270000      -0.79300000       3.10370000
H       -3.69770000       0.95900000       1.55530000
H       -1.91520000       1.39230000       0.11980000
