23
Properties=species:S:1:pos:R:3 gdb_63029=T pbc="F F F"
C       -0.02730000       1.54410000       0.04070000
C        0.06390000       0.02940000       0.05770000
C       -1.16870000      -0.64820000      -0.52200000
C        1.34610000      -0.72210000      -0.21330000
C        2.59080000      -0.01640000       0.34940000
C        1.93250000      -0.04960000       1.74520000
C        2.62660000      -0.41790000       3.02170000
C        2.01410000       0.95660000       2.85880000
C        0.70590000      -0.74560000       1.18780000
H        0.84690000       2.02470000       0.48300000
H       -0.13240000       1.91300000      -0.98670000
H       -0.90660000       1.88210000       0.60190000
H       -1.32540000      -0.35010000      -1.56530000
H       -1.07770000      -1.73890000      -0.49630000
H       -2.06910000      -0.37350000       0.03960000
H        1.37830000      -1.51970000      -0.94690000
H        3.48440000      -0.64470000       0.29910000
H        2.83030000       0.96590000      -0.07230000
H        2.13360000      -1.12060000       3.68670000
H        3.70910000      -0.50060000       3.01160000
H        2.68700000       1.80010000       2.73880000
H        1.11030000       1.18460000       3.41480000
H        0.18360000      -1.55880000       1.68190000
