14
Properties=species:S:1:pos:R:3 gdb_130464=T pbc="F F F"
O       -0.02580000       1.27440000       0.00920000
C        1.22020000       1.74820000      -0.00030000
C        2.11480000       0.70760000      -0.01440000
C        3.52850000       0.55670000      -0.02880000
C        4.03350000      -0.71200000      -0.04040000
C        3.17660000      -1.86310000      -0.03830000
C        1.81520000      -1.75910000      -0.02470000
C        1.25560000      -0.44900000      -0.01230000
N       -0.02810000      -0.11430000       0.00180000
H        1.31780000       2.82250000       0.00450000
H        4.17940000       1.42380000      -0.03040000
H        5.10700000      -0.86630000      -0.05150000
H        3.63700000      -2.84570000      -0.04800000
H        1.16810000      -2.62780000      -0.02310000
