20
Properties=species:S:1:pos:R:3 gdb_56791=T pbc="F F F"
C        0.01600000       1.53630000      -0.01240000
C       -0.01350000      -0.01020000       0.02800000
C        0.74240000      -0.49700000       1.19310000
N        1.32680000      -0.87260000       2.11710000
C       -1.41890000      -0.56830000       0.04000000
C       -1.97240000      -1.29700000      -0.92990000
C       -3.41210000      -1.64260000      -0.64000000
C       -3.55960000      -1.28010000       0.86110000
C       -2.40080000      -0.29700000       1.16350000
H        1.04510000       1.90180000      -0.05160000
H       -0.51810000       1.88520000      -0.89980000
H       -0.46350000       1.96020000       0.87310000
H        0.49890000      -0.38920000      -0.86420000
H       -1.46960000      -1.59030000      -1.84600000
H       -4.08640000      -1.05020000      -1.27480000
H       -3.64630000      -2.69330000      -0.84360000
H       -4.54050000      -0.86490000       1.10380000
H       -3.43150000      -2.18380000       1.46460000
H       -1.96120000      -0.45500000       2.15450000
H       -2.73740000       0.74900000       1.13770000
