23
Properties=species:S:1:pos:R:3 gdb_104738=T pbc="F F F"
C       -0.52860000       0.91170000       0.31980000
O       -0.60270000      -0.29990000      -0.41720000
C        0.42680000      -0.51200000      -1.34640000
C        0.28110000       0.30900000      -2.60720000
O        0.74160000       1.63750000      -2.35580000
C        1.80430000      -0.82260000      -0.79980000
C        0.95590000      -1.93880000      -1.37950000
C        0.34020000      -2.93590000      -0.41300000
C        1.39760000      -2.57950000      -2.68480000
H        0.43060000       1.00420000       0.84760000
H       -0.65090000       1.79000000      -0.32170000
H       -1.33730000       0.87490000       1.05450000
H        0.84860000      -0.14010000      -3.43150000
H       -0.78230000       0.30730000      -2.88920000
H        0.55160000       2.16770000      -3.13590000
H        2.66460000      -0.47270000      -1.36110000
H        1.92550000      -0.78580000       0.27780000
H       -0.01840000      -2.44810000       0.49310000
H       -0.51190000      -3.44950000      -0.87350000
H        1.07770000      -3.69830000      -0.13700000
H        2.05020000      -3.43440000      -2.47250000
H        0.54210000      -2.95570000      -3.25840000
H        1.96230000      -1.89770000      -3.32510000
