14
Properties=species:S:1:pos:R:3 gdb_23911=T pbc="F F F"
C       -0.13040000       1.50320000      -0.17840000
C        0.01410000       0.00210000      -0.05280000
C        0.84410000      -0.76700000      -1.01370000
N        1.28280000      -0.59080000       0.38150000
C       -1.19500000      -0.67800000       0.55600000
F       -2.29710000      -0.41320000      -0.17190000
F       -1.06190000      -2.00410000       0.61930000
F       -1.42670000      -0.22830000       1.80000000
H        0.75620000       1.93000000      -0.65560000
H       -1.00410000       1.76360000      -0.78210000
H       -0.25050000       1.96280000       0.80740000
H        0.57600000      -1.78450000      -1.27740000
H        1.33730000      -0.20060000      -1.79910000
H        1.99220000       0.13510000       0.44570000
