16
Properties=species:S:1:pos:R:3 gdb_620=T pbc="F F F"
C       -0.27160000       1.50050000       0.22110000
C        0.27800000       0.13000000      -0.19530000
C        1.02610000      -0.53700000       0.93390000
O        0.24840000      -1.06260000       2.01910000
C        1.02080000      -1.97920000       1.23420000
C        0.27380000      -3.02910000       0.45170000
H        0.53560000       2.17550000       0.52570000
H       -0.81290000       1.97610000      -0.60200000
H       -0.95730000       1.39600000       1.06710000
H       -0.54370000      -0.50890000      -0.53110000
H        0.96290000       0.24360000      -1.04600000
H        1.90340000       0.02390000       1.26970000
H        1.89770000      -2.36300000       1.76170000
H       -0.59730000      -2.61570000      -0.05970000
H        0.93200000      -3.49020000      -0.29290000
H       -0.07490000      -3.82020000       1.12400000
