17
Properties=species:S:1:pos:R:3 gdb_49555=T pbc="F F F"
O       -0.76500000       1.06570000       0.44900000
C        0.20560000       1.02370000      -0.27190000
C        1.38230000       1.94680000      -0.19090000
C        1.13060000       3.40650000      -0.76160000
C        0.59330000       3.78680000       0.63970000
C        1.58880000       2.71640000       1.15490000
O        2.92760000       3.20740000       1.16060000
C        3.11450000       4.22330000       0.19670000
O        2.40470000       3.98310000      -1.00670000
H        0.27020000       0.26420000      -1.08280000
H        2.27680000       1.47750000      -0.60570000
H        0.52760000       3.54450000      -1.65970000
H        0.68090000       4.81900000       0.98130000
H       -0.42690000       3.42910000       0.77300000
H        1.41250000       2.20230000       2.09930000
H        2.81010000       5.19480000       0.61390000
H        4.17770000       4.25140000      -0.05220000
