17
Properties=species:S:1:pos:R:3 gdb_11320=T pbc="F F F"
C       -0.01660000       1.41820000       0.00960000
N       -0.01110000      -0.03570000       0.01930000
C        0.54660000      -0.62550000      -0.95350000
C        0.67900000      -2.12960000      -1.16640000
N        1.39890000      -2.30960000      -2.43310000
C        1.64500000      -1.13780000      -2.88180000
C        2.36440000      -0.83470000      -4.15460000
N        1.18190000      -0.09270000      -2.07760000
H        1.00070000       1.84180000       0.01600000
H       -0.54080000       1.83060000      -0.86770000
H       -0.53000000       1.78820000       0.90040000
H        1.22600000      -2.59910000      -0.34130000
H       -0.30420000      -2.61110000      -1.20910000
H        2.64860000      -1.76990000      -4.63650000
H        1.72820000      -0.25850000      -4.83590000
H        3.26510000      -0.24070000      -3.96320000
H        1.28480000       0.88680000      -2.27650000
