18
Properties=species:S:1:pos:R:3 gdb_110126=T pbc="F F F"
O       -0.01170000       1.38320000       0.51700000
C        0.04640000       0.13590000      -0.15130000
C       -1.30660000      -0.54910000      -0.17520000
C       -1.49910000      -2.03380000      -0.29770000
C       -0.36480000      -3.03400000      -0.41270000
O       -0.75130000      -4.31680000       0.04630000
C       -1.80360000      -1.34420000       1.03400000
C       -0.92590000      -1.55000000       2.15040000
N       -0.20560000      -1.71700000       3.04220000
H       -0.10020000       1.20710000       1.46000000
H        0.35360000       0.35760000      -1.17880000
H        0.81380000      -0.51490000       0.28610000
H       -2.07750000       0.06800000      -0.62820000
H       -2.39160000      -2.35400000      -0.82790000
H       -0.10210000      -3.15730000      -1.46870000
H        0.53300000      -2.67840000       0.10810000
H       -0.81240000      -4.27870000       1.00700000
H       -2.84570000      -1.23200000       1.31210000
