18
Properties=species:S:1:pos:R:3 gdb_90518=T pbc="F F F"
O        0.17260000       1.34740000      -0.07330000
C        0.06860000      -0.05920000       0.02640000
C        0.29140000      -0.77920000       1.38660000
N       -1.07270000      -1.41430000       1.32600000
C       -2.06250000      -0.32550000       1.32710000
C       -1.96730000       0.95680000       2.14960000
C       -2.08180000       0.71100000       3.58390000
C       -2.17030000       0.49090000       4.76220000
C       -1.35350000      -0.59290000       0.05680000
H        1.10300000       1.57740000      -0.16480000
H        0.64670000      -0.54610000      -0.76860000
H        1.05860000      -1.55530000       1.35470000
H        0.45800000      -0.14550000       2.26160000
H       -3.06050000      -0.75860000       1.35920000
H       -1.04810000       1.50160000       1.92430000
H       -2.78370000       1.61420000       1.82350000
H       -2.25020000       0.30160000       5.80370000
H       -1.86180000      -1.02250000      -0.80080000
