17
Properties=species:S:1:pos:R:3 gdb_18256=T pbc="F F F"
O        0.10460000       1.43110000       0.05640000
C        0.04140000       0.01410000       0.14100000
C       -1.39600000      -0.52570000       0.02810000
C       -2.08230000      -0.20440000      -1.28900000
C       -2.54290000      -1.29260000      -1.91050000
C       -2.19700000      -2.52150000      -1.13770000
N       -0.72110000      -2.72080000      -1.02220000
C       -1.46690000      -2.05410000       0.07130000
H        0.00930000       1.67330000      -0.86930000
H        0.66610000      -0.47050000      -0.61900000
H        0.44870000      -0.24540000       1.12440000
H       -1.97060000      -0.09800000       0.86170000
H       -2.16420000       0.81020000      -1.66350000
H       -3.06870000      -1.31090000      -2.85770000
H       -2.83880000      -3.39590000      -1.13950000
H       -0.54660000      -3.68430000      -0.73970000
H       -1.54890000      -2.56250000       1.02600000
