22
Properties=species:S:1:pos:R:3 gdb_122913=T pbc="F F F"
C        0.02730000       1.42700000       0.05160000
O       -0.00290000       0.02070000       0.00570000
C        0.64990000      -0.50690000      -1.12630000
C        0.54870000      -2.02670000      -1.07410000
C        1.21750000      -2.69010000      -2.28150000
C        1.22590000      -4.23680000      -2.21020000
C       -0.18020000      -4.86720000      -2.25060000
C        2.04860000      -4.77570000      -3.29970000
N        2.69100000      -5.19080000      -4.16640000
H        1.05820000       1.81370000       0.08930000
H       -0.47380000       1.87590000      -0.82090000
H       -0.49850000       1.73650000       0.95800000
H        0.18700000      -0.12320000      -2.05290000
H        1.70820000      -0.19190000      -1.14450000
H        1.01480000      -2.37490000      -0.14400000
H       -0.51140000      -2.29440000      -1.01580000
H        0.71670000      -2.38460000      -3.20840000
H        2.25430000      -2.34370000      -2.36210000
H        1.71360000      -4.53300000      -1.27180000
H       -0.70970000      -4.57160000      -3.16100000
H       -0.11720000      -5.95780000      -2.23240000
H       -0.76670000      -4.54480000      -1.38750000
