13
Properties=species:S:1:pos:R:3 gdb_3684=T pbc="F F F"
C        0.00220000       1.46930000      -0.06500000
C       -0.06460000      -0.01230000       0.02930000
N       -1.06750000      -0.79550000      -0.23090000
C       -0.54290000      -2.04510000       0.03480000
C       -1.32150000      -3.30550000      -0.11640000
N        0.70200000      -2.03360000       0.43260000
O        1.03130000      -0.66890000       0.43170000
H        0.78120000       1.77610000      -0.76940000
H       -0.96090000       1.85120000      -0.40270000
H        0.24500000       1.90710000       0.90790000
H       -1.66980000      -3.41400000      -1.14790000
H       -0.70570000      -4.16630000       0.14790000
H       -2.20620000      -3.28360000       0.52690000
