19
Properties=species:S:1:pos:R:3 gdb_95141=T pbc="F F F"
O        0.37630000       0.96100000      -0.81030000
C        0.04890000      -0.12650000       0.03340000
C        0.52320000       0.11710000       1.48520000
C       -0.22410000      -0.73340000       2.53930000
C       -1.69380000      -0.96150000       2.11470000
C       -1.70830000      -1.78330000       0.78890000
C       -1.46990000      -0.44980000       0.01790000
C       -2.13730000       0.22170000       1.23080000
O       -2.82120000       1.19200000       1.39060000
H       -0.06600000       1.74740000      -0.46960000
H        0.57310000      -0.98270000      -0.40640000
H        1.60620000      -0.01260000       1.55950000
H        0.32500000       1.17540000       1.70060000
H        0.25480000      -1.70980000       2.67440000
H       -0.18350000      -0.22400000       3.50680000
H       -2.33390000      -1.26720000       2.94340000
H       -0.93150000      -2.54590000       0.68750000
H       -2.68490000      -2.22020000       0.57230000
H       -1.88920000      -0.30410000      -0.97820000
