17
Properties=species:S:1:pos:R:3 gdb_48894=T pbc="F F F"
O        0.03990000      -0.05170000      -0.23030000
C        0.07110000       1.13790000      -0.05620000
C        1.30300000       1.97730000      -0.04570000
C        1.68060000       2.78470000       1.22610000
C        2.71570000       3.65130000       0.48230000
C        1.81110000       4.44480000      -0.49550000
C        1.59260000       3.08140000      -1.16590000
C        2.99690000       2.62250000      -0.72120000
O        2.55820000       1.31650000      -0.34100000
H       -0.85700000       1.73370000       0.11320000
H        0.86690000       3.37250000       1.65890000
H        2.09680000       2.11030000       1.97620000
H        3.50860000       4.12560000       1.05660000
H        0.96030000       4.98970000      -0.07680000
H        2.37910000       5.10420000      -1.15820000
H        1.18030000       2.91630000      -2.15940000
H        3.91630000       2.66690000      -1.30180000
