21
Properties=species:S:1:pos:R:3 gdb_106365=T pbc="F F F"
C        0.06680000       1.52300000       0.20950000
C        0.01590000       0.01240000      -0.04960000
C       -1.39140000      -0.52490000      -0.07090000
C       -1.77160000      -2.03790000       0.05280000
C       -3.04310000      -1.32120000       0.58480000
O       -2.16410000      -0.31310000       1.17450000
C       -3.55280000      -0.59980000      -0.68720000
C       -4.95090000      -0.58870000      -1.19500000
C       -2.41610000      -0.05560000      -1.13000000
H        1.10070000       1.87770000       0.25110000
H       -0.44960000       2.08060000      -0.57840000
H       -0.41920000       1.76330000       1.15890000
H        0.49140000      -0.22900000      -1.00890000
H        0.58180000      -0.51690000       0.72520000
H       -1.84350000      -2.63800000      -0.85710000
H       -1.21180000      -2.54830000       0.84160000
H       -3.75440000      -1.76850000       1.27950000
H       -5.63790000      -0.15250000      -0.45860000
H       -5.03650000      -0.01370000      -2.12120000
H       -5.31310000      -1.60570000      -1.39380000
H       -2.22110000       0.55220000      -2.00240000
