17
Properties=species:S:1:pos:R:3 gdb_36006=T pbc="F F F"
C       -0.56390000      -0.81080000      -0.22690000
C       -0.19020000       0.32350000      -0.35890000
C        0.27460000       1.69530000      -0.50050000
C        1.74670000       1.88040000      -0.03910000
C        2.69800000       1.24930000      -0.94970000
C        3.48890000       0.76340000      -1.71270000
C        2.12710000       3.34920000       0.15800000
C        1.52830000       4.46500000      -0.58040000
O        1.16400000       4.19350000       0.78040000
H       -0.89960000      -1.81190000      -0.11690000
H        0.17960000       2.00980000      -1.54570000
H       -0.34540000       2.36860000       0.10180000
H        1.83680000       1.39970000       0.94440000
H        4.18350000       0.31640000      -2.38020000
H        3.14370000       3.47880000       0.52990000
H        2.10560000       5.37470000      -0.73400000
H        0.74660000       4.28480000      -1.31460000
