15
Properties=species:S:1:pos:R:3 gdb_29210=T pbc="F F F"
N        0.08630000       1.36500000       0.14190000
C        0.00320000      -0.00030000       0.05460000
C       -1.15720000      -0.71220000       0.03440000
C       -1.18430000      -2.15060000       0.00030000
N       -2.24920000      -2.84930000      -0.01470000
O        0.06380000      -2.79130000      -0.01780000
C        1.21570000      -2.07900000      -0.01070000
C        1.25450000      -0.73830000       0.02440000
O        2.39370000       0.02450000       0.02320000
H        0.96470000       1.78070000      -0.12160000
H       -0.73550000       1.89720000      -0.09210000
H       -2.12230000      -0.22200000       0.05020000
H       -2.02210000      -3.84280000      -0.04010000
H        2.09360000      -2.71480000      -0.03960000
H        3.16730000      -0.54580000      -0.02940000
