20
Properties=species:S:1:pos:R:3 gdb_3069=T pbc="F F F"
C       -0.06150000       1.53920000      -0.18960000
C       -0.02080000       0.03120000       0.07240000
C       -1.40230000      -0.62660000      -0.00170000
C       -1.36380000      -2.13190000       0.25930000
N       -2.70500000      -2.70670000       0.22420000
C       -3.17600000      -3.16420000      -1.07910000
C       -2.78840000      -4.14050000      -0.02340000
H        0.93680000       1.98360000      -0.12700000
H       -0.46120000       1.75690000      -1.18630000
H       -0.70030000       2.04990000       0.53950000
H        0.65150000      -0.44770000      -0.65200000
H        0.41840000      -0.15640000       1.06140000
H       -2.07930000      -0.16280000       0.72610000
H       -1.84370000      -0.44460000      -0.99080000
H       -0.68900000      -2.62060000      -0.46990000
H       -0.94580000      -2.32570000       1.25560000
H       -4.22200000      -2.97400000      -1.30180000
H       -2.50280000      -3.06250000      -1.92990000
H       -1.85900000      -4.68860000      -0.17280000
H       -3.54620000      -4.67640000       0.54130000
