19
Properties=species:S:1:pos:R:3 gdb_11677=T pbc="F F F"
C       -0.42760000       1.12370000       0.23540000
O       -0.15390000      -0.25800000       0.09000000
C        0.59040000      -0.57310000      -1.02680000
C        0.26850000      -0.40560000      -2.53750000
N        1.62270000      -1.12800000      -2.54420000
C        2.02250000      -0.13550000      -1.44150000
C        1.01580000      -2.00220000      -1.41350000
C        1.93860000      -2.86730000      -0.57950000
H        0.49590000       1.71360000       0.32120000
H       -1.01300000       1.51250000      -0.60970000
H       -1.00870000       1.24100000       1.15230000
H       -0.54630000      -0.99860000      -2.96070000
H        0.31590000       0.59360000      -2.97670000
H        2.16260000       0.88080000      -1.81760000
H        2.87470000      -0.44840000      -0.83940000
H        0.20230000      -2.61730000      -1.81430000
H        2.73710000      -2.31520000      -0.08020000
H        1.35440000      -3.37610000       0.19410000
H        2.39900000      -3.63440000      -1.21060000
