20
Properties=species:S:1:pos:R:3 gdb_50100=T pbc="F F F"
O       -0.15230000       0.57550000      -0.21940000
C        0.09900000       1.70830000       0.11550000
N        1.33390000       2.15220000       0.54580000
C        2.59420000       1.72430000      -0.01200000
C        2.17990000       3.16900000      -0.06610000
C        1.80190000       3.81620000      -1.38370000
C        0.89610000       5.02140000      -1.22570000
C        1.48120000       6.37340000      -0.89610000
C        0.89610000       6.11420000      -2.26260000
H       -0.67000000       2.50160000       0.18690000
H        3.34880000       1.40160000       0.69990000
H        2.54930000       1.14800000      -0.93320000
H        2.63330000       3.84710000       0.65580000
H        2.72720000       4.12780000      -1.88630000
H        1.33140000       3.06580000      -2.03250000
H       -0.06690000       4.80250000      -0.77130000
H        0.93940000       7.02110000      -0.21610000
H        2.56080000       6.45330000      -0.81650000
H        1.58260000       6.01930000      -3.09790000
H       -0.04760000       6.58300000      -2.51740000
