17
Properties=species:S:1:pos:R:3 gdb_35101=T pbc="F F F"
C       -0.08110000      -1.19200000      -0.28450000
C       -0.05090000      -0.00850000      -0.07840000
C       -0.00040000       1.43320000       0.13480000
N       -0.47170000       1.82970000       1.48740000
C        0.37930000       2.68020000       1.91420000
N        1.42810000       3.03270000       1.08090000
C        1.41500000       2.06320000      -0.00520000
C        2.65400000       1.30770000      -0.38810000
C        2.06160000       2.34750000      -1.32350000
H       -0.12480000      -2.23990000      -0.45160000
H       -0.67030000       1.90930000      -0.59690000
H        0.29030000       3.17110000       2.87950000
H        2.31720000       3.24950000       1.51090000
H        3.57900000       1.55680000       0.12390000
H        2.54630000       0.25960000      -0.64390000
H        1.55860000       1.99940000      -2.22060000
H        2.58580000       3.29040000      -1.43910000
