11
Properties=species:S:1:pos:R:3 gdb_131418=T pbc="F F F"
O       -0.13940000       1.33680000      -0.19860000
C        0.05700000       0.02850000      -0.06500000
N        1.20280000      -0.43440000       0.25360000
O        1.29980000      -1.84440000       0.36870000
C        0.24030000      -2.66880000       0.15430000
O        0.37620000      -3.84850000       0.26440000
C       -1.07260000      -2.02000000      -0.21830000
N       -2.10110000      -2.70240000      -0.43370000
O       -1.08340000      -0.63410000      -0.30990000
H        0.70280000       1.77710000      -0.01450000
H       -2.89920000      -2.11050000      -0.67280000
