18
Properties=species:S:1:pos:R:3 gdb_45821=T pbc="F F F"
O        0.12250000      -0.03350000      -0.49490000
C        0.05530000       1.14660000      -0.21370000
N       -1.15790000       1.78610000      -0.06560000
C       -1.31480000       3.15970000       0.15310000
C       -0.29450000       4.01880000       0.18580000
C        1.12420000       3.57600000       0.00070000
C        1.99660000       3.65040000       1.29530000
C        1.71790000       2.14380000       1.53970000
C        1.26450000       2.01780000       0.04960000
H       -1.97040000       1.20460000      -0.20310000
H       -2.34410000       3.47170000       0.28800000
H       -0.49570000       5.07040000       0.35880000
H        1.56770000       4.06440000      -0.87450000
H        3.04780000       3.84370000       1.06400000
H        1.67220000       4.35090000       2.06840000
H        2.55210000       1.51220000       1.84930000
H        0.88560000       1.98590000       2.23030000
H        2.07790000       1.64930000      -0.57680000
