19
Properties=species:S:1:pos:R:3 gdb_80076=T pbc="F F F"
O        0.11230000       1.40720000       0.03300000
C        0.00850000       0.01560000      -0.00450000
C       -0.41680000      -0.77090000       1.22320000
C       -0.89130000      -0.00490000       2.39620000
C       -2.06670000       0.64130000       2.43650000
C       -3.07320000       0.58490000       1.35340000
C       -2.94200000       1.35900000       0.05080000
C       -2.67870000      -0.12480000       0.06910000
C       -1.30500000      -0.73300000      -0.02730000
H       -0.07480000       1.68870000       0.93860000
H        0.80840000      -0.41460000      -0.60150000
H        0.14440000      -1.67380000       1.44510000
H       -0.22990000       0.03550000       3.25810000
H       -2.34220000       1.18450000       3.33750000
H       -4.09380000       0.45340000       1.70310000
H       -3.86840000       1.69330000      -0.40370000
H       -2.10140000       2.02340000      -0.08540000
H       -3.44790000      -0.74730000      -0.37520000
H       -1.28010000      -1.63620000      -0.62860000
