18
Properties=species:S:1:pos:R:3 gdb_95656=T pbc="F F F"
O        0.01950000       1.45100000       0.02190000
C       -0.04430000       0.04240000       0.03380000
C       -1.47300000      -0.50030000      -0.05830000
C       -1.43350000      -2.01930000       0.01180000
O       -0.60130000      -2.61080000      -1.00400000
C        0.58940000      -2.04300000      -1.32100000
N        1.50790000      -2.68840000      -1.91120000
C        0.78090000      -0.54530000      -1.11390000
O        0.33390000       0.13720000      -2.29050000
H       -0.04000000       1.71090000      -0.90680000
H        0.40090000      -0.28290000       0.98310000
H       -2.07810000      -0.11030000       0.76550000
H       -1.92750000      -0.17650000      -1.00010000
H       -1.06420000      -2.34980000       0.99270000
H       -2.42030000      -2.46080000      -0.14210000
H        1.22110000      -3.65930000      -2.05650000
H        1.84910000      -0.36580000      -0.95330000
H        0.86180000      -0.18950000      -3.02720000
