14
Properties=species:S:1:pos:R:3 gdb_129548=T pbc="F F F"
N        0.42650000       1.01820000       0.63520000
C       -0.07760000      -0.21670000       0.04100000
C       -1.52350000      -0.13240000      -0.18580000
C       -2.70280000      -0.05990000      -0.39680000
C        0.60880000      -0.59610000      -1.26010000
N        1.30860000       0.17210000      -2.03990000
C        1.66960000      -0.70200000      -3.03710000
N        1.23770000      -1.92340000      -2.89360000
O        0.51950000      -1.85810000      -1.68940000
H        1.43190000       0.93700000       0.76230000
H        0.28880000       1.77980000      -0.02370000
H        0.11120000      -1.03550000       0.74850000
H       -3.74860000       0.00170000      -0.57320000
H        2.27240000      -0.41810000      -3.88740000
