16
Properties=species:S:1:pos:R:3 gdb_124709=T pbc="F F F"
C       -0.07450000       1.56130000       0.01070000
C        0.03990000       0.03840000      -0.02220000
C        0.75460000      -0.48520000      -1.27610000
O       -0.05780000      -0.11730000      -2.37310000
N        0.73840000      -0.46320000       1.16650000
N        1.98670000      -0.15740000       1.48080000
N        2.22860000      -0.80250000       2.58300000
N        1.13000000      -1.49530000       2.93360000
N        0.19910000      -1.28730000       2.05180000
H        0.91650000       2.02170000       0.04520000
H       -0.58470000       1.89010000      -0.89600000
H       -0.64560000       1.89120000       0.88200000
H       -0.94980000      -0.42100000       0.02670000
H        1.75870000      -0.04140000      -1.33450000
H        0.86780000      -1.57660000      -1.19610000
H        0.39360000      -0.36490000      -3.18500000
