13
Properties=species:S:1:pos:R:3 gdb_129000=T pbc="F F F"
N        0.01280000       1.25840000       0.00920000
N        1.05440000       2.08130000       0.00340000
C        2.25590000       1.51410000      -0.01120000
C        2.39340000       0.12630000      -0.01990000
N        3.45600000      -0.66830000      -0.03440000
C        2.92550000      -1.93830000      -0.03600000
C        1.53690000      -1.99780000      -0.02280000
C        1.14210000      -0.64500000      -0.01180000
N       -0.04520000      -0.05890000       0.00280000
H       -0.88480000       1.72220000       0.02030000
H        3.09890000       2.19610000      -0.01580000
H        3.59830000      -2.78770000      -0.04700000
H        0.90630000      -2.87220000      -0.02130000
