19
Properties=species:S:1:pos:R:3 gdb_117410=T pbc="F F F"
C        0.18890000       1.52250000      -0.06600000
C        0.39860000       0.00730000      -0.05220000
C        0.34700000      -0.58280000       1.36170000
C        0.41240000      -2.10430000       1.35430000
O       -0.08780000      -2.78810000       0.48130000
N        1.05400000      -2.66100000       2.43510000
C        1.19790000      -4.09610000       2.56030000
C        2.60380000      -4.51520000       2.61920000
N        3.71230000      -4.83180000       2.69300000
H        0.95600000       2.04060000       0.52050000
H        0.23140000       1.91460000      -1.08650000
H       -0.78660000       1.79270000       0.35390000
H       -0.36170000      -0.49340000      -0.65830000
H        1.36400000      -0.24010000      -0.50940000
H        1.14340000      -0.16450000       1.98940000
H       -0.60200000      -0.30590000       1.84160000
H        1.50130000      -2.06700000       3.11360000
H        0.68200000      -4.48010000       3.44900000
H        0.71590000      -4.52900000       1.67780000
