19
Properties=species:S:1:pos:R:3 gdb_101222=T pbc="F F F"
O        0.00260000       1.44720000       0.04970000
C        0.05620000       0.03910000       0.07370000
C       -1.35070000      -0.56350000       0.03170000
O       -2.05830000      -0.01270000      -1.08630000
C       -1.36180000      -2.08380000       0.01570000
C       -0.98440000      -2.80730000       1.35010000
C       -2.28700000      -3.61710000       1.21650000
O       -2.72090000      -4.57970000       1.77660000
C       -2.76630000      -2.76610000       0.03040000
H       -0.68680000       1.66630000      -0.59100000
H        0.63900000      -0.36020000      -0.77830000
H        0.57770000      -0.25680000       0.99050000
H       -1.90780000      -0.20110000       0.90530000
H       -1.68330000      -0.39450000      -1.88940000
H       -0.74960000      -2.44860000      -0.81750000
H       -0.06110000      -3.39090000       1.37590000
H       -1.00090000      -2.14670000       2.22460000
H       -3.57530000      -2.08110000       0.30610000
H       -3.07740000      -3.32280000      -0.85700000
