19
Properties=species:S:1:pos:R:3 gdb_49194=T pbc="F F F"
O        0.02120000      -0.11990000      -0.04740000
C        0.09860000       1.06790000       0.18100000
C        1.30820000       1.86880000      -0.01950000
C        1.38530000       3.18730000       0.22820000
C        2.74120000       3.75570000      -0.06120000
C        3.63650000       4.03320000       1.18790000
C        4.27020000       2.62390000       1.01800000
C        3.59170000       2.47560000      -0.37800000
C        2.60850000       1.30200000      -0.55300000
H       -0.77630000       1.63710000       0.56910000
H        0.56010000       3.78640000       0.60350000
H        2.69910000       4.56630000      -0.79650000
H        4.34650000       4.84400000       1.00640000
H        3.11720000       4.23300000       2.12870000
H        5.36160000       2.58530000       1.02880000
H        3.89670000       1.89520000       1.74290000
H        4.29410000       2.57630000      -1.20670000
H        2.91860000       0.40620000      -0.00330000
H        2.49360000       0.99320000      -1.59930000
