22
Properties=species:S:1:pos:R:3 gdb_88102=T pbc="F F F"
C        0.02530000       1.40800000      -0.33960000
C        0.15740000      -0.07200000      -0.07060000
N        1.52200000      -0.60080000       0.09850000
C        0.58120000      -0.62100000       1.24840000
C        0.92360000       0.24280000       2.46860000
C        0.88340000      -0.72730000       3.67940000
C        0.23560000      -1.96700000       3.11630000
C        0.06410000      -1.91810000       1.79190000
C       -0.53350000      -2.98720000       0.92860000
H        0.75720000       1.97680000       0.23870000
H        0.19460000       1.62410000      -1.40010000
H       -0.97720000       1.76540000      -0.07920000
H       -0.53560000      -0.69090000      -0.64060000
H        1.59840000      -1.52780000      -0.31490000
H        1.89350000       0.72750000       2.34260000
H        0.17430000       1.03150000       2.59340000
H        1.88780000      -0.94970000       4.06460000
H        0.32180000      -0.31050000       4.52360000
H       -0.03800000      -2.81420000       3.73710000
H       -0.73030000      -3.89420000       1.50570000
H       -1.48030000      -2.66080000       0.48120000
H        0.12800000      -3.26210000       0.09670000
