15
Properties=species:S:1:pos:R:3 gdb_20574=T pbc="F F F"
C        0.08270000       1.46040000      -0.24410000
C        0.02840000      -0.01540000       0.18150000
O        0.54580000      -0.18770000       1.48890000
C       -1.36970000      -0.56550000       0.07090000
N       -2.15440000      -0.63900000       1.14780000
N       -3.29400000      -1.12410000       0.67090000
N       -3.32830000      -1.37950000      -0.62710000
C       -2.10790000      -1.02750000      -1.03460000
H        1.10610000       1.83110000      -0.14340000
H       -0.23840000       1.58650000      -1.28340000
H       -0.57230000       2.06250000       0.39370000
H        0.68130000      -0.59370000      -0.48470000
H       -0.19430000      -0.10200000       2.10170000
H       -4.08320000      -1.30920000       1.26870000
H       -1.82090000      -1.12340000      -2.06950000
