21
Properties=species:S:1:pos:R:3 gdb_115966=T pbc="F F F"
O       -0.00920000       1.45510000      -0.21670000
C        0.06770000       0.06420000       0.03570000
C       -1.30690000      -0.58160000      -0.03790000
O       -1.81870000      -0.34780000      -1.35560000
C       -2.97510000      -1.17010000      -1.48140000
C       -2.62840000      -2.48830000      -0.77780000
C       -1.68920000      -3.44970000      -1.55820000
C       -0.49310000      -3.02390000      -0.66390000
C       -1.43320000      -2.09560000       0.16460000
H       -0.52270000       1.54680000      -1.02780000
H        0.75090000      -0.43040000      -0.67030000
H        0.47950000      -0.05680000       1.04330000
H       -1.96010000      -0.07290000       0.69300000
H       -3.83830000      -0.68800000      -0.99470000
H       -3.19430000      -1.28090000      -2.54740000
H       -3.50300000      -2.95240000      -0.31860000
H       -1.96290000      -4.50350000      -1.46800000
H       -1.58120000      -3.21480000      -2.62100000
H       -0.04590000      -3.83350000      -0.08290000
H        0.30720000      -2.50850000      -1.19810000
H       -1.52770000      -2.36110000       1.21880000
