18
Properties=species:S:1:pos:R:3 gdb_15112=T pbc="F F F"
C       -0.08920000      -1.01160000      -0.52070000
C       -0.00060000       0.10740000      -0.09150000
C        0.14010000       1.46600000       0.41390000
C        1.48850000       2.08860000       0.03640000
O        1.51330000       3.39610000       0.57620000
C        2.70200000       4.07610000       0.31950000
C        2.87190000       4.79450000      -0.99570000
C        2.62080000       5.56610000       0.28610000
H       -0.18120000      -2.00130000      -0.89390000
H       -0.66140000       2.10340000       0.02190000
H        0.04170000       1.47930000       1.50580000
H        2.31100000       1.48130000       0.44440000
H        1.60560000       2.11280000      -1.05650000
H        3.58480000       3.61430000       0.76430000
H        3.85650000       4.83270000      -1.44840000
H        2.04830000       4.73100000      -1.69820000
H        1.63460000       5.99660000       0.41690000
H        3.43060000       6.13890000       0.72330000
