17
Properties=species:S:1:pos:R:3 gdb_104959=T pbc="F F F"
C       -0.32840000       0.92120000       0.92550000
C        0.33140000      -0.32090000       0.31360000
C        0.68910000      -0.13270000      -1.14480000
C        0.43290000      -1.19580000      -2.14480000
O       -0.40410000      -0.05260000      -2.07200000
C        1.82790000       0.81800000      -1.43570000
O        2.60490000       1.16440000      -0.57110000
C        1.95140000       1.29010000      -2.80470000
C        2.10200000       1.69770000      -3.92700000
H        0.35480000       1.77450000       0.91600000
H       -1.23050000       1.19300000       0.36930000
H       -0.61370000       0.73090000       1.96400000
H        1.24640000      -0.56900000       0.86050000
H       -0.34320000      -1.17960000       0.39170000
H        1.04870000      -1.26700000      -3.03940000
H       -0.00350000      -2.12910000      -1.79180000
H        2.23040000       2.06390000      -4.91680000
