21
Properties=species:S:1:pos:R:3 gdb_92014=T pbc="F F F"
C        0.03940000       1.55270000       0.05010000
C       -0.00890000       0.01970000       0.00550000
C        0.65310000      -0.52250000      -1.27930000
C        0.73700000      -2.04630000      -1.33130000
C        2.05440000      -2.75260000      -1.12010000
C        1.00540000      -2.78410000      -0.03680000
C        1.15620000      -1.96140000       1.20730000
O        2.05160000      -0.84210000       1.16070000
C        0.63910000      -0.58450000       1.23860000
H        1.07610000       1.90590000       0.07120000
H       -0.44660000       1.98690000      -0.82970000
H       -0.46630000       1.94350000       0.93940000
H       -1.06360000      -0.29500000       0.02170000
H        0.09110000      -0.15610000      -2.14470000
H        1.65480000      -0.08710000      -1.35210000
H        0.04010000      -2.52680000      -2.01070000
H        2.24860000      -3.66840000      -1.66730000
H        2.92450000      -2.13160000      -0.93810000
H        0.48610000      -3.72400000       0.12470000
H        1.20520000      -2.52150000       2.14140000
H        0.31850000      -0.16730000       2.19480000
