17
Properties=species:S:1:pos:R:3 gdb_69409=T pbc="F F F"
C       -0.12090000       1.56560000       0.01780000
C        0.06840000       0.07220000      -0.01410000
N       -0.74260000      -0.81270000       0.87720000
C        0.71720000      -0.72870000       1.05990000
C        1.46180000      -1.90500000       0.40780000
C        1.14800000      -1.71830000      -1.07620000
C        0.40230000      -0.63630000      -1.29160000
C        2.90090000      -1.88410000       0.68410000
N        4.03490000      -1.85800000       0.90570000
H        0.73350000       2.07920000      -0.43490000
H       -1.02000000       1.85950000      -0.53540000
H       -0.22530000       1.92740000       1.04560000
H       -1.18570000      -0.24000000       1.59530000
H        1.12410000      -0.27850000       1.95820000
H        1.05970000      -2.85810000       0.77400000
H        1.48640000      -2.42880000      -1.81950000
H        0.03970000      -0.30700000      -2.25830000
