13
Properties=species:S:1:pos:R:3 gdb_21802=T pbc="F F F"
O       -0.33270000       0.87020000       1.05990000
C        0.06870000       1.11660000      -0.04540000
C        1.44990000       1.68760000      -0.35230000
C        1.37500000       2.85370000      -1.28670000
N        1.45950000       2.70530000      -2.61330000
N        1.30970000       3.94150000      -3.06830000
N        1.13610000       4.89340000      -2.16360000
C        1.16900000       4.22010000      -1.01380000
H       -0.55500000       0.93600000      -0.94930000
H        1.93210000       1.95060000       0.59210000
H        2.03070000       0.88910000      -0.83070000
H        1.34050000       4.14860000      -4.05370000
H        1.05380000       4.72690000      -0.06890000
