17
Properties=species:S:1:pos:R:3 gdb_30700=T pbc="F F F"
O       -0.10030000       1.51150000       0.15000000
C       -0.08850000       0.12540000       0.40180000
C       -1.37480000      -0.52820000      -0.12200000
O       -1.54750000      -0.16930000      -1.49820000
C       -1.41110000      -2.01570000       0.07000000
C       -1.86530000      -2.92990000      -0.83180000
O       -1.75130000      -4.19240000      -0.34100000
C       -1.21820000      -4.08390000       0.90260000
C       -0.98660000      -2.78290000       1.21190000
H       -0.45640000       1.60560000      -0.74350000
H        0.77950000      -0.37170000      -0.06780000
H        0.00080000      -0.01260000       1.48460000
H       -2.22180000      -0.05060000       0.38650000
H       -0.89440000      -0.67090000      -2.00280000
H       -2.29870000      -2.84040000      -1.81320000
H       -1.06370000      -5.01110000       1.42930000
H       -0.56980000      -2.41050000       2.13450000
