16
Properties=species:S:1:pos:R:3 gdb_5861=T pbc="F F F"
C       -0.03820000       1.54390000       0.00750000
C       -0.01130000       0.00260000       0.02120000
C        0.73620000      -0.52880000       1.26030000
O       -1.34770000      -0.51280000      -0.00540000
C        0.64160000      -0.48930000      -1.19640000
C        1.22300000      -0.87050000      -2.18600000
C        1.87070000      -1.30340000      -3.30200000
C        2.44640000      -1.68650000      -4.29180000
H        0.97310000       1.95760000      -0.03190000
H       -0.60030000       1.89960000      -0.85840000
H       -0.52350000       1.91190000       0.91900000
H        0.25010000      -0.15870000       2.17050000
H        0.71480000      -1.62050000       1.26920000
H        1.77710000      -0.19460000       1.26880000
H       -1.78720000      -0.19490000       0.79160000
H        2.95010000      -2.02520000      -5.16270000
