19
Properties=species:S:1:pos:R:3 gdb_126795=T pbc="F F F"
C       -0.03560000       1.58080000       0.17390000
C       -0.03570000       0.06880000      -0.05870000
N       -1.37320000      -0.49570000      -0.07160000
N       -2.02670000      -0.75290000       1.09350000
C       -3.22090000      -1.19120000       0.71400000
C       -3.37900000      -1.22240000      -0.69090000
C       -4.55320000      -1.65740000      -1.51280000
C       -2.15590000      -0.75830000      -1.14280000
O       -1.66410000      -0.53490000      -2.38610000
H        0.99140000       1.95680000       0.21520000
H       -0.55980000       2.10010000      -0.63380000
H       -0.53190000       1.81700000       1.11860000
H        0.43230000      -0.17930000      -1.01480000
H        0.51580000      -0.44190000       0.73490000
H       -3.94670000      -1.47810000       1.46270000
H       -4.66990000      -1.04600000      -2.41720000
H       -4.48610000      -2.70460000      -1.83550000
H       -5.48300000      -1.55590000      -0.94560000
H       -2.31000000      -0.84610000      -3.02830000
