21
Properties=species:S:1:pos:R:3 gdb_52926=T pbc="F F F"
C       -0.02510000       1.42450000       0.00970000
C       -0.00020000      -0.03040000       0.00190000
C        0.02040000      -1.23580000      -0.00460000
C        0.04490000      -2.67010000      -0.01250000
C        0.78600000      -3.61710000       0.98820000
C        0.07740000      -4.57030000      -0.02300000
C        0.10300000      -6.07420000      -0.03120000
C       -1.17220000      -3.64570000       0.10700000
C        0.56980000      -3.60900000      -1.14850000
H        0.54600000       1.82870000       0.85320000
H        0.40760000       1.83590000      -0.90930000
H       -1.04930000       1.80550000       0.09170000
H        1.87910000      -3.58930000       0.95850000
H        0.41150000      -3.62020000       2.01600000
H       -0.30970000      -6.48110000       0.89860000
H       -0.48750000      -6.47440000      -0.86280000
H        1.12660000      -6.45090000      -0.13600000
H       -1.69300000      -3.65090000       1.06890000
H       -1.87520000      -3.64410000      -0.73110000
H       -0.00290000      -3.60470000      -2.08040000
H        1.64680000      -3.58060000      -1.33800000
