17
Properties=species:S:1:pos:R:3 gdb_84261=T pbc="F F F"
C       -0.19350000       1.50880000      -0.13890000
C        0.01990000       0.00260000      -0.00480000
N        0.81080000      -0.55970000      -1.13550000
C        1.75250000      -1.16600000      -0.53610000
C        3.06320000      -1.93770000      -0.64240000
C        3.10910000      -1.82860000       0.93130000
N        1.79390000      -1.15210000       0.84580000
C        0.76570000      -0.35510000       1.33060000
O        0.50910000      -0.02260000       2.45860000
H        0.76560000       2.02950000      -0.21580000
H       -0.77590000       1.72970000      -1.03620000
H       -0.72340000       1.88530000       0.74020000
H       -0.95390000      -0.50310000       0.02380000
H        2.96890000      -2.95460000      -1.02650000
H        3.86340000      -1.42050000      -1.17360000
H        3.08050000      -2.77390000       1.47630000
H        3.90110000      -1.19070000       1.32970000
