17
Properties=species:S:1:pos:R:3 gdb_123794=T pbc="F F F"
C       -0.43090000       1.00240000      -0.31750000
C        0.97770000       1.13350000       0.20220000
C        0.35760000      -0.22870000       0.07840000
N       -0.00490000      -0.89870000       1.29090000
C       -1.02450000      -1.81920000       1.29430000
N       -1.20730000      -2.76500000       2.20150000
C       -2.36500000      -3.35350000       1.78120000
N       -2.90620000      -2.85410000       0.68930000
N       -2.01880000      -1.85520000       0.37920000
H       -1.23390000       1.30640000       0.34370000
H       -0.61110000       1.17450000      -1.37270000
H        1.76640000       1.39500000      -0.49320000
H        1.10200000       1.52670000       1.20430000
H        0.71350000      -0.86120000      -0.73600000
H        0.75440000      -1.16990000       1.89970000
H       -2.81680000      -4.18390000       2.30370000
H       -2.17370000      -1.26280000      -0.41760000
