21
Properties=species:S:1:pos:R:3 gdb_54584=T pbc="F F F"
C       -0.06920000       1.50020000       0.14800000
C        0.06590000      -0.01370000       0.09010000
O        1.14280000      -0.56420000       0.16680000
C       -1.21420000      -0.78710000      -0.07030000
C       -2.21760000      -0.77660000       1.12560000
C       -2.28890000      -2.33350000       1.06520000
C       -1.27930000      -2.35120000      -0.11360000
C       -1.92340000      -2.28460000      -1.52210000
C       -1.90120000      -0.72630000      -1.47460000
H        0.91680000       1.95770000       0.23870000
H       -0.57030000       1.87510000      -0.75140000
H       -0.69080000       1.79370000       1.00130000
H       -1.78090000      -0.40310000       2.05610000
H       -3.15120000      -0.23570000       0.94570000
H       -1.91640000      -2.81590000       1.97160000
H       -3.27320000      -2.75230000       0.83670000
H       -0.38620000      -2.96340000       0.00230000
H       -1.28720000      -2.69330000      -2.31040000
H       -2.91170000      -2.74540000      -1.60770000
H       -2.87420000      -0.22660000      -1.48640000
H       -1.27740000      -0.27560000      -2.25130000
