22
Properties=species:S:1:pos:R:3 gdb_121499=T pbc="F F F"
C       -0.70010000       1.38540000       0.23570000
C       -0.93930000      -0.07980000       0.61260000
C       -0.76760000      -1.00930000      -0.59670000
N       -0.95460000      -2.44000000      -0.42890000
C       -1.26280000      -2.92170000       0.68880000
O       -1.43350000      -4.26320000       0.81740000
C       -1.73510000      -4.71010000       2.11560000
C       -3.15820000      -4.63470000       2.60190000
C       -2.54630000      -5.95990000       2.19590000
H       -0.82760000       2.04550000       1.09890000
H        0.31410000       1.53470000      -0.15060000
H       -1.40030000       1.71330000      -0.54050000
H       -0.24180000      -0.37170000       1.40830000
H       -1.94980000      -0.18980000       1.02700000
H       -1.45390000      -0.68760000      -1.39290000
H        0.23840000      -0.86520000      -1.01590000
H       -1.42200000      -2.36930000       1.62200000
H       -0.92850000      -4.56290000       2.83050000
H       -3.33530000      -4.43710000       3.65320000
H       -3.88450000      -4.19880000       1.92540000
H       -2.86610000      -6.38440000       1.25150000
H       -2.30100000      -6.68390000       2.96410000
