18
Properties=species:S:1:pos:R:3 gdb_14312=T pbc="F F F"
O       -0.35570000       1.66160000       0.21800000
C       -0.19010000       0.28700000       0.11750000
C       -0.40350000      -0.71910000       1.22310000
C       -1.27290000      -0.34870000       2.41910000
C       -2.60430000       0.19130000       1.85820000
O       -2.53510000       1.62930000       1.89080000
C       -2.70960000      -0.36660000       0.41770000
C       -1.29760000      -0.73250000      -0.02190000
H       -1.08150000       1.85630000       0.83500000
H        0.67630000       0.08200000      -0.50550000
H        0.35670000      -1.47750000       1.38190000
H       -1.46310000      -1.24560000       3.01790000
H       -0.82300000       0.39600000       3.08380000
H       -3.45760000      -0.11880000       2.47310000
H       -3.31600000       1.97620000       1.44580000
H       -3.33400000      -1.26730000       0.41810000
H       -3.20000000       0.35840000      -0.24480000
H       -1.19930000      -1.49970000      -0.78350000
