14
Properties=species:S:1:pos:R:3 gdb_25577=T pbc="F F F"
O       -0.28710000       0.34930000       0.64580000
C        0.13180000       1.02960000      -0.25040000
C        1.28350000       2.00400000      -0.07550000
O        1.47570000       2.66480000      -1.32900000
C        2.42300000       3.60350000      -1.36870000
C        2.46570000       4.85000000      -1.89580000
N        3.75560000       5.35180000      -1.73900000
C        4.39960000       4.41360000      -1.13460000
O        3.66110000       3.29830000      -0.87190000
H       -0.28620000       1.00180000      -1.27980000
H        1.04060000       2.72660000       0.71460000
H        2.18450000       1.45600000       0.22400000
H        1.67770000       5.40830000      -2.37180000
H        5.42600000       4.39860000      -0.80490000
