17
Properties=species:S:1:pos:R:3 gdb_27158=T pbc="F F F"
C       -0.26830000       1.51270000       0.13040000
C       -0.04270000       0.04310000       0.03850000
C        0.19850000      -0.71300000      -1.06280000
O        0.34200000      -2.02920000      -0.65110000
C        0.17440000      -1.97120000       0.68990000
N       -0.05360000      -0.79170000       1.15880000
N        0.30850000      -0.37810000      -2.40430000
C        1.26750000      -1.10860000      -3.24760000
C       -0.19380000      -1.31730000      -3.41940000
H        0.48240000       1.98530000       0.77280000
H       -0.21500000       1.96450000      -0.86240000
H       -1.24960000       1.73260000       0.56450000
H        0.24710000      -2.90400000       1.22790000
H        1.81950000      -0.48980000      -3.94840000
H        1.83430000      -1.90920000      -2.78200000
H       -0.60780000      -2.25800000      -3.06900000
H       -0.72080000      -0.85250000      -4.24700000
