12
Properties=species:S:1:pos:R:3 gdb_25357=T pbc="F F F"
O       -0.14160000       0.01140000      -0.00050000
C        0.00060000       1.20610000       0.00760000
C        1.29670000       1.90160000      -0.00180000
N        2.50300000       1.37010000      -0.02050000
C        3.36790000       2.42920000      -0.02160000
C        2.67330000       3.62990000      -0.00380000
N        1.36400000       3.27790000       0.00830000
C        4.78200000       2.27680000      -0.03920000
N        5.93530000       2.18750000      -0.05330000
H       -0.87120000       1.90180000       0.02350000
H        3.00830000       4.65360000       0.00070000
H        0.58110000       3.91350000       0.02250000
