18
Properties=species:S:1:pos:R:3 gdb_87944=T pbc="F F F"
O       -0.18980000       1.32700000      -0.40360000
C       -0.09080000      -0.04640000      -0.17660000
C       -0.32440000      -0.58630000       1.21610000
C       -1.36680000      -0.77360000       0.14330000
C       -2.68840000      -0.02430000       0.16080000
O       -3.45240000      -0.58660000      -0.92090000
C       -2.93200000      -1.78540000      -1.32040000
N       -3.41060000      -2.50660000      -2.23870000
C       -1.70370000      -2.10940000      -0.49270000
H        0.57430000       1.75570000      -0.00460000
H        0.62840000      -0.56740000      -0.80950000
H        0.24190000      -1.45030000       1.54880000
H       -0.53560000       0.14650000       1.98970000
H       -3.23870000      -0.18020000       1.09760000
H       -2.57060000       1.04580000      -0.01690000
H       -4.24820000      -2.07340000      -2.63160000
H       -0.91260000      -2.53050000      -1.11530000
H       -1.96650000      -2.86140000       0.26170000
