20
Properties=species:S:1:pos:R:3 gdb_78370=T pbc="F F F"
C       -0.18110000       1.38960000      -0.08810000
C        0.03580000      -0.10220000      -0.15630000
C        0.91860000      -0.68620000      -1.20630000
N        1.38060000      -0.53710000       0.25620000
C        1.42080000      -2.07650000       0.31390000
C        0.58530000      -3.07010000       1.13360000
C        0.22290000      -4.12950000       0.03020000
C        0.15510000      -3.29910000      -1.25800000
C        0.83350000      -2.17550000      -1.05400000
H        0.71430000       1.92610000      -0.41300000
H       -1.02050000       1.69110000      -0.72350000
H       -0.40180000       1.69690000       0.93950000
H       -0.81700000      -0.70490000       0.15300000
H        1.35590000      -0.09830000      -2.00540000
H        2.48910000      -2.32050000       0.35080000
H        1.10650000      -3.50440000       1.99090000
H       -0.33570000      -2.60130000       1.49730000
H        0.98790000      -4.91730000      -0.02190000
H       -0.72640000      -4.63480000       0.23790000
H       -0.42710000      -3.59330000      -2.12320000
