20
Properties=species:S:1:pos:R:3 gdb_33495=T pbc="F F F"
C       -0.30990000      -1.18410000       0.48960000
C       -0.22690000       0.00160000       0.30190000
C       -0.11860000       1.42200000       0.07730000
C       -1.29550000       2.10140000      -0.61270000
C       -1.48780000       1.65260000      -2.04540000
C       -2.35170000       0.46220000      -2.37690000
C       -2.81460000       1.85340000      -2.73270000
C        0.72890000       2.19280000       1.04050000
N        1.21110000       1.95330000      -0.32410000
H       -0.38610000      -2.23080000       0.65090000
H       -2.20800000       1.91390000      -0.03340000
H       -1.11190000       3.18180000      -0.58680000
H       -0.60390000       1.78990000      -2.66170000
H       -2.03450000      -0.19760000      -3.17670000
H       -2.84930000      -0.04490000      -1.55740000
H       -3.62640000       2.28120000      -2.15270000
H       -2.81460000       2.14900000      -3.77610000
H        0.46410000       3.22390000       1.25910000
H        1.18240000       1.64870000       1.86340000
H        1.89130000       1.19720000      -0.32090000
