20
Properties=species:S:1:pos:R:3 gdb_13889=T pbc="F F F"
C       -0.20490000       1.53480000       0.04020000
C        0.04040000       0.02690000      -0.04900000
O        0.79470000      -0.30870000      -1.20470000
C        0.74450000      -0.51990000       1.20230000
C        0.87610000      -2.04500000       1.25690000
C        2.17440000      -2.23150000       2.05360000
C        3.01630000      -1.04330000       1.57080000
O        2.09270000      -0.01810000       1.18810000
H        0.73890000       2.06440000       0.20420000
H       -0.65190000       1.89680000      -0.88920000
H       -0.87890000       1.77690000       0.86930000
H       -0.91950000      -0.49340000      -0.15690000
H        1.69350000      -0.01320000      -1.00660000
H        0.23360000      -0.14400000       2.10270000
H        0.00980000      -2.52240000       1.72120000
H        0.98330000      -2.43030000       0.23790000
H        1.97910000      -2.14970000       3.12820000
H        2.66420000      -3.19150000       1.87370000
H        3.68380000      -0.64750000       2.34430000
H        3.63010000      -1.31730000       0.70130000
