25
Properties=species:S:1:pos:R:3 gdb_105364=T pbc="F F F"
C       -0.01780000       1.72510000      -0.04560000
C        0.00300000       0.19360000      -0.07020000
C       -1.34190000      -0.52910000      -0.00720000
C       -1.23770000      -2.03470000      -0.24470000
C       -0.37810000      -2.79230000       0.75050000
C       -0.95150000      -3.28010000       2.05770000
C       -0.59900000      -4.26750000       0.97180000
C       -2.40930000      -0.06010000       0.95270000
C       -2.59210000       0.13600000      -0.53490000
H        1.00550000       2.11320000      -0.04690000
H       -0.52500000       2.14220000      -0.92080000
H       -0.51150000       2.11800000       0.84920000
H        0.52100000      -0.13210000      -0.98370000
H        0.62290000      -0.15770000       0.76460000
H       -2.24680000      -2.46700000      -0.23540000
H       -0.84410000      -2.20450000      -1.25790000
H        0.66020000      -2.47460000       0.78740000
H       -0.32930000      -3.24380000       2.94530000
H       -2.00330000      -3.09690000       2.24960000
H       -1.41490000      -4.74270000       0.43610000
H        0.26610000      -4.90580000       1.11440000
H       -3.01400000      -0.81050000       1.45060000
H       -2.22030000       0.81950000       1.55840000
H       -2.53020000       1.14670000      -0.92110000
H       -3.31800000      -0.48540000      -1.04970000
