17
Properties=species:S:1:pos:R:3 gdb_80310=T pbc="F F F"
C       -0.18550000       1.54180000       0.06490000
C        0.02430000       0.05060000      -0.03240000
C        0.60080000      -0.66920000      -1.22100000
C        1.37340000       0.12570000      -2.19910000
C        2.44740000       0.67400000      -1.60920000
C        2.51410000       0.24930000      -0.14560000
N        1.33340000      -0.60990000       0.07520000
C        3.39560000       1.54140000      -2.20900000
N        4.19630000       2.24670000      -2.66160000
H        0.46490000       2.11450000      -0.59840000
H       -1.22240000       1.78430000      -0.18770000
H       -0.01010000       1.88060000       1.09230000
H       -0.72950000      -0.51920000       0.50970000
H        0.18300000      -1.62450000      -1.52840000
H        1.10000000       0.23970000      -3.24010000
H        3.42450000      -0.32500000       0.06050000
H        2.51270000       1.10800000       0.53630000
