19
Properties=species:S:1:pos:R:3 gdb_3970=T pbc="F F F"
C       -0.30980000       1.44770000       0.00390000
C       -0.16690000      -0.05000000       0.03300000
N       -0.13450000      -0.74150000       1.10530000
O       -0.23230000       0.06850000       2.24780000
C       -0.00890000      -0.81020000      -1.28030000
C        1.39100000      -0.52660000      -1.86000000
C       -0.23640000      -2.31670000      -1.12220000
O       -1.01010000      -0.25340000      -2.14520000
H       -0.42060000       1.80900000      -1.01700000
H       -1.18440000       1.74690000       0.58860000
H        0.55650000       1.92370000       0.47620000
H       -0.21970000      -0.58250000       2.95720000
H        2.17310000      -0.92250000      -1.20570000
H        1.49590000      -1.00560000      -2.84080000
H        1.55140000       0.54710000      -1.98810000
H       -1.24330000      -2.50920000      -0.74700000
H       -0.12380000      -2.80680000      -2.09650000
H        0.47930000      -2.75980000      -0.42760000
H       -0.90490000      -0.66650000      -3.00860000
