14
Properties=species:S:1:pos:R:3 gdb_8572=T pbc="F F F"
O        0.00790000       0.08270000       0.47930000
C       -0.01370000       1.18800000       0.03490000
O       -1.17810000       1.84060000      -0.21750000
C       -1.08720000       3.17420000      -0.75460000
C       -0.06880000       3.17010000      -1.91940000
C        0.98180000       3.20270000      -0.78400000
C       -0.05150000       3.97160000       0.07330000
O        1.12460000       1.87240000      -0.25020000
H       -2.11160000       3.51870000      -0.88430000
H       -0.06660000       2.31260000      -2.59420000
H       -0.08970000       4.10550000      -2.48120000
H        1.99220000       3.57530000      -0.94260000
H       -0.06960000       5.03560000      -0.16870000
H       -0.03410000       3.82000000       1.15380000
