18
Properties=species:S:1:pos:R:3 gdb_6435=T pbc="F F F"
C        0.32910000       1.25220000       0.09100000
C       -0.08250000      -0.22480000      -0.00740000
C        0.87240000      -1.05340000      -0.94250000
C        1.62580000      -1.57920000       0.29780000
O        2.83350000      -0.85280000       0.45690000
C        0.45820000      -1.08270000       1.19450000
C       -1.50330000      -0.35910000      -0.28110000
C       -2.67940000      -0.47570000      -0.50750000
H        1.40110000       1.32480000       0.29100000
H        0.10970000       1.77590000      -0.84450000
H       -0.21720000       1.75210000       0.89700000
H        0.34280000      -1.84290000      -1.47800000
H        1.47920000      -0.47620000      -1.64320000
H        1.81650000      -2.65970000       0.32230000
H        3.18960000      -1.05760000       1.32790000
H        0.74110000      -0.52370000       2.09100000
H       -0.23030000      -1.88460000       1.46940000
H       -3.71690000      -0.57770000      -0.70790000
