11
Properties=species:S:1:pos:R:3 gdb_2814=T pbc="F F F"
N       -0.12490000      -1.16030000      -0.00390000
C       -0.05680000      -0.00650000       0.01220000
C        0.00110000       1.42870000       0.02990000
C        0.49120000       2.15160000       1.26270000
C        1.35200000       2.15530000       0.02110000
C        2.58120000       1.41270000      -0.00490000
N        3.58130000       0.83340000      -0.02810000
H       -0.77890000       1.91000000      -0.54980000
H       -0.00450000       3.07640000       1.53060000
H        0.82440000       1.54210000       2.09310000
H        1.37430000       3.06830000      -0.56390000
