16
Properties=species:S:1:pos:R:3 gdb_64991=T pbc="F F F"
C       -0.09700000       1.53700000      -0.70250000
C       -0.08790000       0.18260000      -0.04140000
C        0.90700000      -0.84620000      -0.40380000
O        1.02170000      -0.12050000       0.82380000
C       -1.44410000      -0.30300000       0.45480000
O       -2.46460000      -0.03540000      -0.12660000
N       -1.34550000      -1.06600000       1.61730000
C       -2.36700000      -1.71390000       2.30580000
O       -3.51970000      -1.77370000       1.98090000
H        0.88700000       1.76840000      -1.11570000
H       -0.84280000       1.54880000      -1.49990000
H       -0.36490000       2.31400000       0.01980000
H        0.66290000      -1.90210000      -0.30210000
H        1.65580000      -0.60680000      -1.15630000
H       -0.41390000      -1.10000000       2.01410000
H       -1.96430000      -2.18930000       3.22320000
