19
Properties=species:S:1:pos:R:3 gdb_126543=T pbc="F F F"
C        0.05710000       1.58090000      -0.00140000
C        0.12430000       0.05340000      -0.04800000
C        0.66130000      -0.55440000       1.26080000
C        0.66750000      -2.04800000       1.24430000
N       -0.38890000      -2.83600000       1.10340000
C        0.15260000      -4.08850000       1.13950000
N       -0.62230000      -5.21880000       0.96320000
N        1.46870000      -4.13600000       1.29980000
N        1.77440000      -2.80370000       1.35690000
H        1.04630000       2.02050000       0.16980000
H       -0.32840000       1.98720000      -0.94130000
H       -0.60110000       1.92420000       0.80460000
H       -0.86810000      -0.36680000      -0.23970000
H        0.76150000      -0.26910000      -0.88020000
H        1.67580000      -0.18710000       1.45870000
H        0.03640000      -0.21590000       2.09650000
H       -1.57810000      -5.08770000       1.26000000
H       -0.20540000      -6.05650000       1.34230000
H        2.73050000      -2.51690000       1.48080000
