18
Properties=species:S:1:pos:R:3 gdb_16153=T pbc="F F F"
C        0.01110000       1.47980000      -0.33650000
C        0.00560000       0.03230000       0.17350000
C       -1.38450000      -0.54530000       0.26460000
C       -2.39770000      -0.01820000       1.28840000
C       -3.31410000      -1.20200000       1.52080000
C       -2.93660000      -2.27700000       0.82420000
C       -1.74380000      -1.95050000      -0.01150000
O       -1.99700000      -0.90410000      -0.98330000
H        1.03320000       1.85850000      -0.42910000
H       -0.46550000       1.54030000      -1.31940000
H       -0.53050000       2.14670000       0.34250000
H        0.59820000      -0.59680000      -0.49930000
H        0.47940000      -0.01990000       1.16210000
H       -1.90160000       0.30120000       2.21470000
H       -2.94190000       0.85220000       0.90330000
H       -4.18760000      -1.14140000       2.16040000
H       -3.42610000      -3.24290000       0.82070000
H       -1.02750000      -2.70330000      -0.32850000
