19
Properties=species:S:1:pos:R:3 gdb_114770=T pbc="F F F"
O        0.10090000       1.37040000       0.15430000
C        0.04440000      -0.04670000       0.09460000
C       -1.42270000      -0.46050000      -0.04540000
C       -1.52420000      -1.97520000      -0.32540000
C       -2.91000000      -2.55520000      -0.07120000
O       -3.11240000      -3.16110000       1.21050000
C       -3.78360000      -1.91530000       0.92100000
C       -3.29270000      -0.69440000       1.60760000
C       -2.22560000      -0.03230000       1.16070000
H        1.00620000       1.63030000       0.34660000
H        0.61510000      -0.43180000      -0.76570000
H        0.46650000      -0.50360000       1.00410000
H       -1.80840000       0.09320000      -0.91510000
H       -1.21750000      -2.17840000      -1.35700000
H       -0.82500000      -2.51160000       0.32730000
H       -3.36640000      -3.10590000      -0.89320000
H       -4.86410000      -2.02060000       0.82540000
H       -3.84320000      -0.34370000       2.47600000
H       -1.89460000       0.87980000       1.64860000
