16
Properties=species:S:1:pos:R:3 gdb_67396=T pbc="F F F"
O       -0.06000000       1.37120000       0.00400000
C        0.03800000       0.00430000      -0.00600000
C       -1.03920000      -1.03710000       0.06990000
C       -0.50060000      -1.76570000      -1.15800000
C        0.80520000      -0.92820000      -1.00310000
O        1.76670000      -1.65960000      -0.23160000
C        1.27380000      -1.79270000       1.04960000
N        1.80920000      -2.47870000       1.96550000
C        0.06370000      -0.93930000       1.16420000
H        0.71790000       1.73590000       0.44240000
H       -2.07220000      -0.92850000       0.37530000
H       -0.36900000      -2.85050000      -1.11330000
H       -1.05380000      -1.49030000      -2.05970000
H        1.29100000      -0.52100000      -1.88670000
H        2.65860000      -2.93020000       1.62190000
H       -0.27040000      -0.62240000       2.14230000
