12
Properties=species:S:1:pos:R:3 gdb_4652=T pbc="F F F"
N        0.08810000       1.36700000       0.16140000
C       -0.06710000      -0.00030000       0.05080000
C       -1.14480000      -0.83110000       0.02000000
C       -0.59530000      -2.16680000      -0.00220000
C        0.76040000      -2.03420000       0.01140000
O        1.09070000      -0.71390000       0.04630000
C       -1.31550000      -3.38640000      -0.03910000
N       -1.91490000      -4.37680000      -0.07080000
H        0.92870000       1.71290000      -0.28260000
H       -0.72600000       1.88890000      -0.12970000
H       -2.18680000      -0.56020000       0.01230000
H        1.57610000      -2.73540000      -0.00350000
