17
Properties=species:S:1:pos:R:3 gdb_63340=T pbc="F F F"
C        0.00490000       1.52770000      -0.00780000
C       -0.00720000       0.00190000       0.03520000
C       -1.41400000      -0.58080000      -0.07240000
O        0.78970000      -0.50050000      -1.07620000
C        1.84380000      -1.22340000      -0.63570000
O        2.65960000      -1.75190000      -1.33260000
N        1.79690000      -1.23510000       0.75780000
C        0.72510000      -0.52870000       1.26820000
N        0.34640000      -0.31000000       2.45760000
H        1.02980000       1.90760000       0.01550000
H       -0.47870000       1.88240000      -0.92170000
H       -0.53020000       1.91750000       0.86110000
H       -1.89820000      -0.22870000      -0.98700000
H       -1.38020000      -1.67330000      -0.09300000
H       -2.00170000      -0.26740000       0.79340000
H        2.49600000      -1.72220000       1.29470000
H        0.95920000      -0.74380000       3.14880000
