19
Properties=species:S:1:pos:R:3 gdb_39505=T pbc="F F F"
C        0.04430000       1.47040000       0.05010000
C        1.33790000       0.70050000      -0.07270000
O        2.20020000       0.84770000       1.01090000
C        3.04910000      -0.26590000       1.26830000
C        2.30010000      -1.56510000       1.55590000
O        1.37440000      -1.48020000       2.62380000
C        0.25040000      -0.64380000       2.43060000
O       -0.37260000      -0.81030000       1.18290000
C        0.02310000      -0.03780000       0.08160000
H       -0.07510000       1.99320000       0.99330000
H       -0.36760000       1.98590000      -0.81030000
H        1.83910000       0.64160000      -1.04130000
H        3.73910000      -0.43220000       0.42350000
H        3.63890000       0.03030000       2.14060000
H        1.80410000      -1.93430000       0.64980000
H        3.03270000      -2.32120000       1.85790000
H       -0.47630000      -0.97900000       3.17570000
H        0.51200000       0.40480000       2.60540000
H       -0.34600000      -0.52810000      -0.81430000
