20
Properties=species:S:1:pos:R:3 gdb_100212=T pbc="F F F"
C        0.15030000       1.54260000       0.05090000
C       -0.02620000       0.02350000      -0.00190000
C       -1.49670000      -0.48070000      -0.01300000
C       -2.26660000       0.02410000      -1.25090000
C       -1.46940000      -2.04310000       0.00780000
C       -2.78200000      -2.67280000       0.02250000
C       -3.86890000      -3.18470000       0.03490000
C       -2.17100000      -0.00320000       1.20600000
N       -2.67780000       0.39050000       2.16740000
H        1.21280000       1.79380000       0.11770000
H       -0.24710000       2.03340000      -0.84200000
H       -0.35080000       1.96920000       0.92500000
H        0.45760000      -0.37800000      -0.90090000
H        0.48280000      -0.42980000       0.85660000
H       -1.73710000      -0.28110000      -2.15950000
H       -3.27180000      -0.40120000      -1.27600000
H       -2.35320000       1.11220000      -1.24900000
H       -0.91080000      -2.37120000      -0.87790000
H       -0.89390000      -2.37320000       0.88040000
H       -4.82770000      -3.64080000       0.05800000
