20
Properties=species:S:1:pos:R:3 gdb_99213=T pbc="F F F"
C        0.04740000       1.50690000       0.22870000
C       -0.12470000       0.04100000      -0.16100000
C        0.78670000      -0.40270000      -1.29730000
O        1.46920000       0.38420000      -1.91590000
C        0.80140000      -1.89550000      -1.59350000
C        1.48980000      -2.25130000      -2.90700000
C        2.03750000      -3.67620000      -2.90100000
N        2.25500000      -4.20830000      -4.14030000
O        2.27090000      -4.29500000      -1.87980000
H        1.06380000       1.70080000       0.58180000
H       -0.12720000       2.15970000      -0.62980000
H       -0.65160000       1.78090000       1.02370000
H        0.04300000      -0.62720000       0.69420000
H       -1.15770000      -0.16250000      -0.47850000
H        1.33570000      -2.39790000      -0.77570000
H       -0.22140000      -2.28780000      -1.54830000
H        0.82180000      -2.10370000      -3.76240000
H        2.32920000      -1.56130000      -3.05700000
H        2.18550000      -3.65030000      -4.97360000
H        2.74040000      -5.08910000      -4.19450000
