21
Properties=species:S:1:pos:R:3 gdb_114740=T pbc="F F F"
C        0.08890000       1.51340000      -0.09010000
C        0.02050000      -0.01690000      -0.06410000
C       -1.40660000      -0.56470000      -0.01470000
C       -2.29840000      -0.22570000      -1.24450000
C       -3.25570000      -1.39980000      -1.36100000
O       -2.64110000      -2.57800000      -1.91520000
C       -2.81360000      -2.49880000      -0.48980000
C       -1.48850000      -2.11350000       0.17610000
O       -0.41100000      -2.83230000      -0.39520000
H        1.12680000       1.86010000      -0.10660000
H       -0.40950000       1.92620000      -0.97380000
H       -0.39220000       1.94910000       0.79330000
H        0.53090000      -0.43020000      -0.94100000
H        0.57380000      -0.39430000       0.80450000
H       -1.91200000      -0.13530000       0.86230000
H       -2.83770000       0.71640000      -1.11110000
H       -1.71220000      -0.13630000      -2.16660000
H       -4.29420000      -1.25830000      -1.64920000
H       -3.47760000      -3.24430000      -0.06080000
H       -1.48650000      -2.36490000       1.24130000
H       -0.61800000      -2.90430000      -1.33710000
