16
Properties=species:S:1:pos:R:3 gdb_79732=T pbc="F F F"
O        0.13250000       1.43610000       0.22070000
C        0.00540000       0.06600000       0.02400000
C       -1.40630000      -0.62130000       0.05380000
C       -2.57560000       0.16890000      -0.57420000
N       -1.99660000       0.99440000      -1.66660000
C       -2.32130000      -0.43950000      -1.90640000
C       -1.14110000      -1.27510000      -1.35240000
C        0.21860000      -0.53310000      -1.40600000
O        1.09190000      -0.45600000      -2.21610000
H       -0.38300000       1.83990000      -0.49380000
H        0.68500000      -0.43870000       0.72280000
H       -1.65820000      -1.22720000       0.92150000
H       -3.50270000       0.46210000      -0.09820000
H       -2.74830000       1.54980000      -2.07140000
H       -2.99830000      -0.71470000      -2.70490000
H       -1.17550000      -2.34780000      -1.53490000
