18
Properties=species:S:1:pos:R:3 gdb_65710=T pbc="F F F"
C       -0.14770000       1.72530000       0.32350000
C       -0.03330000       0.23520000       0.06250000
C       -1.33330000      -0.43590000      -0.40480000
C       -1.53960000      -0.19830000      -1.89240000
O       -0.94710000      -0.82850000      -2.73270000
N        1.21000000      -0.22030000      -0.54010000
C        0.91630000      -0.64360000       0.84400000
C        1.82320000      -0.10970000       1.89900000
O        1.93980000      -0.61170000       2.98920000
H        0.82780000       2.16300000       0.53910000
H       -0.54990000       2.23810000      -0.55740000
H       -0.81820000       1.92560000       1.16570000
H       -1.26630000      -1.51790000      -0.25800000
H       -2.18330000      -0.05470000       0.17000000
H       -2.24970000       0.60720000      -2.17970000
H        1.04210000      -0.97430000      -1.20310000
H        0.57960000      -1.65940000       1.03760000
H        2.39960000       0.79230000       1.60080000
