17
Properties=species:S:1:pos:R:3 gdb_12317=T pbc="F F F"
C        0.01710000       1.49960000      -0.08390000
C       -0.00880000      -0.00160000      -0.02490000
C       -1.13010000      -0.71650000       0.13570000
C       -1.11420000      -2.21740000       0.18070000
C        0.11760000      -2.72160000      -0.55740000
O        1.30700000      -2.06050000      -0.11340000
C        1.29920000      -0.69370000      -0.08470000
N        2.38690000      -0.03590000      -0.04390000
H        0.64300000       1.90800000       0.71450000
H        0.45790000       1.84590000      -1.02410000
H       -0.99270000       1.90870000       0.00480000
H       -2.08340000      -0.20670000       0.24870000
H       -1.11300000      -2.57270000       1.22100000
H       -2.01380000      -2.63330000      -0.28780000
H        0.29680000      -3.78570000      -0.38730000
H       -0.00220000      -2.55830000      -1.63730000
H        3.18020000      -0.67960000      -0.07680000
