18
Properties=species:S:1:pos:R:3 gdb_106357=T pbc="F F F"
O       -0.02270000       1.39680000      -0.09080000
C        0.01130000      -0.00560000       0.09090000
C       -1.35660000      -0.61520000      -0.04770000
C       -2.26170000      -0.53230000      -1.30060000
C       -3.09740000      -1.56060000      -0.45950000
C       -1.71400000      -2.11900000       0.03190000
C       -3.43780000      -0.68400000       0.71890000
N       -4.52650000      -0.54220000       1.33290000
O       -2.23880000      -0.04820000       0.98780000
H       -0.66710000       1.74090000       0.53840000
H        0.67050000      -0.41110000      -0.68330000
H        0.43310000      -0.28290000       1.07020000
H       -2.70980000       0.43480000      -1.53290000
H       -1.80830000      -0.98210000      -2.18540000
H       -3.89150000      -2.17940000      -0.86560000
H       -1.21280000      -2.72150000      -0.72760000
H       -1.66660000      -2.59610000       1.01280000
H       -4.42890000       0.13250000       2.09400000
