20
Properties=species:S:1:pos:R:3 gdb_57972=T pbc="F F F"
C       -0.26130000       1.31220000       0.06510000
N        0.08320000      -0.09240000      -0.04630000
C        0.52010000      -0.75190000       1.16940000
C        0.02340000      -0.68570000      -1.27460000
O       -0.32160000      -0.13620000      -2.29920000
O        0.41490000      -1.99200000      -1.21870000
C        0.32750000      -2.69270000      -2.44240000
C        0.52070000      -4.16910000      -2.33970000
C       -0.84870000      -3.59510000      -2.65700000
H        0.59930000       1.89800000       0.41420000
H       -0.57060000       1.67370000      -0.91380000
H       -1.08070000       1.45220000       0.78170000
H       -0.25200000      -0.66820000       1.94540000
H        0.71500000      -1.80340000       0.97760000
H        1.43630000      -0.28600000       1.55700000
H        0.73200000      -2.14080000      -3.28120000
H        1.07890000      -4.66930000      -3.12280000
H        0.66730000      -4.57750000      -1.34630000
H       -1.59120000      -3.62890000      -1.86790000
H       -1.24480000      -3.69170000      -3.66140000
