21
Properties=species:S:1:pos:R:3 gdb_110899=T pbc="F F F"
C       -0.11490000       1.53300000      -0.13030000
C        0.04360000       0.01730000      -0.00820000
C        0.98680000      -0.57340000      -1.08600000
C        1.21620000      -2.03110000      -0.63890000
C        1.96050000      -1.24690000       0.46020000
O        2.30910000      -0.24340000      -0.55170000
C        0.83200000      -0.53390000       1.24180000
C        1.37360000       0.49130000       2.22600000
O        2.02370000      -0.23830000       3.26290000
H        0.85880000       2.02670000      -0.19220000
H       -0.67420000       1.78240000      -1.03860000
H       -0.66350000       1.95800000       0.71590000
H       -0.94500000      -0.45080000      -0.06780000
H        0.83930000      -0.27380000      -2.12480000
H        0.35630000      -2.64920000      -0.36650000
H        1.90090000      -2.56150000      -1.30120000
H        2.80980000      -1.63190000       1.02190000
H        0.23280000      -1.25400000       1.80840000
H        2.07640000       1.16160000       1.71220000
H        0.55570000       1.10560000       2.63280000
H        2.46500000       0.39140000       3.84000000
