23
Properties=species:S:1:pos:R:3 gdb_115288=T pbc="F F F"
C        0.21290000       0.76650000       0.63970000
O        0.04230000      -0.45980000      -0.03220000
C        0.53760000      -0.45990000      -1.36450000
C        2.07980000      -0.61300000      -1.43600000
O        2.36410000      -1.90930000      -1.94100000
C        1.18610000      -2.73610000      -1.89300000
C        1.30110000      -3.73150000      -3.04420000
C        1.10940000      -3.46200000      -0.54080000
C        0.03840000      -1.72210000      -2.07580000
H        1.27240000       1.03140000       0.77560000
H       -0.28010000       1.59200000       0.10190000
H       -0.24680000       0.66220000       1.62550000
H        0.20050000       0.45820000      -1.86660000
H        2.54170000       0.12050000      -2.10740000
H        2.51130000      -0.47690000      -0.43410000
H        2.17530000      -4.37500000      -2.90770000
H        0.41250000      -4.36850000      -3.09570000
H        1.41060000      -3.20410000      -3.99600000
H        0.99040000      -2.74950000       0.27840000
H        0.25650000      -4.14890000      -0.51690000
H        2.02310000      -4.04130000      -0.37840000
H       -0.91440000      -2.05250000      -1.65790000
H       -0.10070000      -1.51380000      -3.14110000
