14
Properties=species:S:1:pos:R:3 gdb_48384=T pbc="F F F"
O       -0.38090000       0.13160000       0.46300000
C        0.34950000       0.64200000      -0.34870000
C        1.22380000       1.81380000      -0.03330000
N        2.31290000       2.09340000      -0.98010000
C        1.20370000       3.02980000      -0.97360000
C        0.33340000       3.08580000      -2.11350000
C       -0.41220000       3.16310000      -3.05270000
C        1.46080000       2.15140000       1.40520000
O        2.35720000       2.88870000       1.74550000
H        0.43210000       0.28230000      -1.39340000
H        3.07940000       2.49320000      -0.43440000
H        1.34920000       3.97030000      -0.44540000
H       -1.06540000       3.22800000      -3.88820000
H        0.77220000       1.67540000       2.12430000
