16
Properties=species:S:1:pos:R:3 gdb_51932=T pbc="F F F"
H        2.14570000      -2.77770000       2.15550000
N        1.86790000      -2.99310000       1.20020000
C        1.75840000      -1.92830000       0.53410000
H        1.92070000      -0.90580000       0.89990000
O        1.41340000      -1.98880000      -0.77130000
C        1.28240000      -0.73060000      -1.44120000
H        2.18770000      -0.12620000      -1.29030000
H        1.23250000      -0.98360000      -2.50380000
C        0.10070000       0.02300000      -1.03520000
C       -0.87050000       0.63900000      -0.68310000
C       -2.05950000       1.38200000      -0.26280000
H       -2.57750000       1.77120000      -1.15010000
H       -2.76790000       0.68820000       0.21050000
C       -1.77000000       2.48490000       0.65540000
C       -1.54390000       3.39210000       1.40800000
H       -1.34220000       4.19410000       2.07420000
