12
Properties=species:S:1:pos:R:3 gdb_2509=T pbc="F F F"
C       -0.14900000       1.38120000      -0.08700000
O        0.18120000       0.01060000       0.08730000
C        0.72830000      -0.58620000      -1.06550000
C        1.25340000      -1.90720000      -0.72670000
C        1.70730000      -2.98630000      -0.46710000
C       -0.27880000      -0.68970000      -2.15680000
N       -1.06750000      -0.72620000      -2.99970000
H        0.73440000       1.97060000      -0.37320000
H       -0.93060000       1.51730000      -0.84570000
H       -0.51840000       1.73180000       0.87760000
H        1.55230000       0.03410000      -1.46110000
H        2.10100000      -3.94490000      -0.23190000
