19
Properties=species:S:1:pos:R:3 gdb_103207=T pbc="F F F"
O       -0.10900000       1.46560000      -0.04130000
C        0.03680000       0.04550000       0.02780000
C       -1.37120000      -0.52730000       0.10470000
O       -2.10780000      -0.06390000      -1.01560000
C       -1.58600000      -2.02590000       0.24110000
C       -1.61010000      -2.37510000       1.73980000
C       -1.38900000      -1.08680000       2.53210000
C       -2.21580000      -0.39400000       1.41790000
C       -2.83270000      -1.81100000       1.06460000
H        0.73040000       1.84950000      -0.30860000
H        0.52000000      -0.34690000      -0.87910000
H        0.64300000      -0.24900000       0.89350000
H       -1.89350000       0.87550000      -1.08530000
H       -1.41340000      -2.77980000      -0.51660000
H       -1.44320000      -3.39570000       2.06120000
H       -1.94010000      -1.11440000       3.47690000
H       -0.37010000      -0.73180000       2.72360000
H       -2.76630000       0.52640000       1.59850000
H       -3.83990000      -2.18040000       0.94860000
