23
Properties=species:S:1:pos:R:3 gdb_119985=T pbc="F F F"
C       -0.20810000       1.40260000      -0.20880000
C       -0.28030000      -0.06250000       0.18310000
O       -1.37490000      -0.65890000      -0.50240000
C       -1.51860000      -2.02860000      -0.25360000
C       -2.44060000      -2.50280000       0.85050000
C       -3.08390000      -1.53160000       1.81840000
C       -2.85540000      -2.60700000      -0.61530000
C       -3.89230000      -1.69420000      -1.24660000
O       -3.46980000      -1.20980000      -2.51230000
H        0.63170000       1.88940000       0.29570000
H       -0.06980000       1.50570000      -1.28890000
H       -1.12860000       1.92310000       0.07070000
H        0.65140000      -0.58430000      -0.08740000
H       -0.41390000      -0.17400000       1.26900000
H       -0.61770000      -2.60540000      -0.46650000
H       -2.15600000      -3.44980000       1.30280000
H       -3.14890000      -0.52540000       1.39900000
H       -4.09500000      -1.84980000       2.09420000
H       -2.49580000      -1.46740000       2.74030000
H       -2.82440000      -3.60200000      -1.05010000
H       -4.81700000      -2.25250000      -1.42630000
H       -4.14320000      -0.86480000      -0.57340000
H       -2.66290000      -0.70990000      -2.33880000
