19
Properties=species:S:1:pos:R:3 gdb_40973=T pbc="F F F"
C        0.05580000       1.54050000      -0.05960000
O        1.40920000       1.55450000       0.43010000
C        1.46340000       0.11110000       0.47310000
C        0.01270000      -0.00170000      -0.05010000
C       -0.98130000      -0.64450000       0.91460000
O       -0.81030000      -2.05570000       0.92880000
C       -0.95670000      -2.59410000      -0.35880000
O       -0.01460000      -2.09150000      -1.26940000
C       -0.14040000      -0.68230000      -1.40850000
H       -0.64120000       2.03780000       0.62900000
H       -0.03380000       2.01050000      -1.04880000
H        2.23720000      -0.29420000      -0.18960000
H        1.62960000      -0.26700000       1.48890000
H       -0.82920000      -0.29780000       1.94060000
H       -2.01310000      -0.38910000       0.61440000
H       -0.78480000      -3.66890000      -0.27910000
H       -1.98010000      -2.39340000      -0.73250000
H       -1.12260000      -0.42910000      -1.84570000
H        0.63670000      -0.36380000      -2.10910000
