20
Properties=species:S:1:pos:R:3 gdb_84787=T pbc="F F F"
C        0.13660000       1.58610000      -0.34350000
C       -0.00100000       0.10090000      -0.00840000
N        0.50480000      -0.71730000      -1.13060000
C        1.42670000      -1.43730000      -0.64730000
O        1.73110000      -1.35500000       0.66760000
C        0.79290000      -0.41160000       1.24010000
C        1.43530000       0.59420000       2.22670000
C        0.26730000       0.31680000       3.21210000
C       -0.04610000      -0.97830000       2.41320000
H        1.18560000       1.86390000      -0.48560000
H       -0.39580000       1.79660000      -1.27440000
H       -0.28700000       2.21540000       0.44560000
H       -1.06640000      -0.12600000       0.12260000
H        2.03000000      -2.14620000      -1.20450000
H        2.38130000       0.19080000       2.59620000
H        1.59770000       1.61820000       1.88700000
H        0.52230000       0.20200000       4.26680000
H       -0.53110000       1.05870000       3.12680000
H       -1.09200000      -1.21940000       2.20520000
H        0.44460000      -1.85470000       2.84420000
