19
Properties=species:S:1:pos:R:3 gdb_108207=T pbc="F F F"
C        0.08170000       1.37350000       0.01840000
O        0.08960000      -0.04910000      -0.04250000
C        0.63900000      -0.58600000      -1.17710000
C       -0.01450000      -0.26070000      -2.54320000
O        0.52050000      -1.28910000      -3.39920000
C        1.40660000      -2.06630000      -2.57610000
C        2.60700000      -1.17720000      -2.21730000
O        2.03390000      -0.22800000      -1.29800000
C        0.67550000      -2.11790000      -1.23130000
H        1.09230000       1.77940000      -0.08900000
H       -0.56770000       1.80910000      -0.75240000
H       -0.31490000       1.63520000       1.00090000
H       -1.10900000      -0.33090000      -2.50920000
H        0.27980000       0.72640000      -2.91360000
H        1.63760000      -2.99750000      -3.09130000
H        3.41940000      -1.72800000      -1.72550000
H        3.00090000      -0.66380000      -3.10090000
H        1.25360000      -2.53810000      -0.40720000
H       -0.30990000      -2.58030000      -1.29740000
