17
Properties=species:S:1:pos:R:3 gdb_125904=T pbc="F F F"
C        0.15940000       1.49040000       0.07650000
C       -0.04670000      -0.02010000      -0.02910000
C        0.67300000      -0.63300000      -1.29650000
C        1.89010000      -1.25560000      -0.67540000
C        1.73660000      -1.24860000       0.67480000
N        0.55210000      -0.73570000       1.14870000
O        2.74170000      -1.80930000       1.32260000
N        3.67940000      -2.24420000       0.31990000
C        3.13120000      -1.90620000      -0.83250000
H        1.22680000       1.73590000       0.07410000
H       -0.31150000       2.00030000      -0.77000000
H       -0.28600000       1.88950000       0.99450000
H       -1.11710000      -0.24170000      -0.05490000
H        0.02690000      -1.37150000      -1.78590000
H        0.88070000       0.15050000      -2.03290000
H        0.58560000      -0.20530000       2.01040000
H        3.68110000      -2.14810000      -1.73230000
