16
Properties=species:S:1:pos:R:3 gdb_49182=T pbc="F F F"
O       -0.01400000       0.00130000       0.15970000
C        0.02690000       1.20730000       0.05130000
C        1.26440000       1.98110000      -0.02840000
C        1.37770000       3.31850000      -0.08380000
C        2.83770000       3.66320000      -0.03560000
C        3.36600000       3.34050000       1.40680000
C        3.68870000       1.96150000       0.86220000
C        2.63560000       1.39880000      -0.05320000
N        3.57650000       2.42290000      -0.56970000
H       -0.90280000       1.81530000      -0.00410000
H        0.57090000       4.03990000      -0.02790000
H        3.14520000       4.60300000      -0.49010000
H        4.28600000       3.89310000       1.60680000
H        2.67910000       3.44540000       2.25180000
H        4.51020000       1.33670000       1.19890000
H        2.78540000       0.38980000      -0.41950000
