21
Properties=species:S:1:pos:R:3 gdb_95786=T pbc="F F F"
C       -0.10320000       1.52340000      -0.01290000
C        0.03770000       0.00240000      -0.00940000
N        0.75460000      -0.45200000      -1.19900000
C        0.97390000      -1.88790000      -1.16040000
C        1.97060000      -2.17210000      -0.04690000
N        1.56840000      -1.54020000       1.20300000
C        2.27330000      -1.97770000       2.39600000
C        0.72090000      -0.46710000       1.28700000
O        0.45820000       0.08120000       2.34600000
H        0.88000000       1.99550000      -0.09200000
H       -0.71040000       1.84740000      -0.86480000
H       -0.57990000       1.85320000       0.91040000
H       -0.97760000      -0.44080000       0.04710000
H        0.23360000      -0.18750000      -2.02820000
H        0.04620000      -2.46400000      -0.97980000
H        1.39360000      -2.22450000      -2.11310000
H        2.04760000      -3.25390000       0.12130000
H        2.96700000      -1.81300000      -0.34400000
H        3.35320000      -1.80410000       2.29810000
H        1.89240000      -1.41250000       3.24490000
H        2.11300000      -3.04960000       2.56290000
