23
Properties=species:S:1:pos:R:3 gdb_58093=T pbc="F F F"
C        0.24590000       1.40940000       0.25990000
C       -0.05700000      -0.08840000       0.22850000
O        0.36590000      -0.70640000       1.44620000
C       -1.54130000      -0.46400000      -0.11070000
C       -2.50360000      -0.00750000       0.99820000
C       -1.95050000       0.16250000      -1.45690000
C       -1.52720000      -2.00640000      -0.29270000
C       -1.90320000      -2.89780000       0.87370000
O       -1.17280000      -2.48010000      -1.34950000
H        1.29750000       1.55250000       0.52440000
H        0.07190000       1.88270000      -0.70880000
H       -0.36460000       1.93310000       1.00530000
H        0.56160000      -0.55330000      -0.54710000
H        0.08260000      -0.14680000       2.17650000
H       -2.52020000       1.08430000       1.07330000
H       -3.52830000      -0.32710000       0.78370000
H       -2.23070000      -0.41060000       1.97710000
H       -1.24210000      -0.10330000      -2.24380000
H       -2.93340000      -0.20650000      -1.76600000
H       -2.01320000       1.25140000      -1.38260000
H       -1.80780000      -3.94110000       0.57060000
H       -1.23120000      -2.68580000       1.71090000
H       -2.92550000      -2.70560000       1.21420000
