20
Properties=species:S:1:pos:R:3 gdb_81849=T pbc="F F F"
C       -0.03370000       1.53640000       0.09490000
C       -0.09420000       0.04740000       0.00430000
C       -0.13370000      -0.72080000      -1.08760000
C       -0.08950000      -2.18040000      -0.74190000
C       -0.76660000      -3.20350000      -1.61450000
N        1.19670000      -2.52720000      -0.04750000
C       -0.03170000      -2.23560000       0.73540000
C        0.00190000      -0.80420000       1.27540000
O        1.18230000      -0.52730000       2.01420000
H        0.85560000       1.84140000       0.65760000
H       -0.00570000       2.00700000      -0.89130000
H       -0.89880000       1.93390000       0.64180000
H       -0.15320000      -0.36240000      -2.11180000
H       -0.28720000      -3.26190000      -2.59850000
H       -0.72830000      -4.19980000      -1.16180000
H       -1.81890000      -2.94490000      -1.77330000
H        1.32580000      -3.53820000      -0.07550000
H       -0.48750000      -3.03270000       1.31270000
H       -0.83210000      -0.60750000       1.96040000
H        1.89290000      -0.92430000       1.48920000
