24
Properties=species:S:1:pos:R:3 gdb_7490=T pbc="F F F"
C        0.13690000       1.62580000      -0.11700000
C        0.07890000       0.10100000       0.01710000
C       -1.33790000      -0.45760000      -0.17230000
C       -1.48860000      -1.96400000       0.06400000
C       -0.66730000      -2.79360000      -0.92780000
C       -1.29270000      -2.45520000       1.53820000
C       -2.59530000      -3.28950000       1.41720000
C       -2.96430000      -2.47820000       0.14700000
H        1.15590000       2.00170000       0.01940000
H       -0.20750000       1.94930000      -1.10580000
H       -0.50100000       2.11380000       0.62840000
H        0.76010000      -0.35010000      -0.71390000
H        0.45510000      -0.19280000       1.00590000
H       -2.01520000       0.06930000       0.51440000
H       -1.69000000      -0.21640000      -1.18630000
H        0.40680000      -2.61220000      -0.81760000
H       -0.83340000      -3.86600000      -0.77960000
H       -0.94520000      -2.55570000      -1.96150000
H       -0.36860000      -2.99560000       1.76260000
H       -1.39440000      -1.63580000       2.25680000
H       -2.39850000      -4.34240000       1.19900000
H       -3.29400000      -3.24340000       2.25570000
H       -3.66570000      -1.66680000       0.36450000
H       -3.34040000      -3.03570000      -0.71590000
