14
Properties=species:S:1:pos:R:3 gdb_26905=T pbc="F F F"
N        0.08690000       1.36100000       0.18660000
C       -0.02960000       0.00070000       0.06900000
C       -1.19450000      -0.70300000       0.03460000
O       -2.38600000      -0.02400000       0.05510000
N       -1.20670000      -2.05280000      -0.01710000
C       -0.08200000      -2.70100000      -0.03530000
C        1.21400000      -2.04950000      -0.00640000
N        2.32880000      -2.65810000      -0.02860000
O        1.15450000      -0.64950000       0.04360000
H        0.93070000       1.75640000      -0.20310000
H       -0.75720000       1.86630000      -0.04000000
H       -3.07620000      -0.69410000      -0.01720000
H       -0.08560000      -3.78410000      -0.07930000
H        3.11060000      -2.00440000       0.00090000
