15
Properties=species:S:1:pos:R:3 gdb_32141=T pbc="F F F"
C       -0.05040000       1.42180000       0.04120000
O       -0.04910000      -0.00750000      -0.00470000
C       -1.23310000      -0.62800000       0.01380000
C       -1.24260000      -2.02920000      -0.03120000
C       -2.49180000      -2.61750000      -0.00950000
N       -3.64130000      -1.92940000       0.05020000
C       -3.49420000      -0.61400000       0.08800000
O       -4.62730000       0.10060000       0.14810000
N       -2.35090000       0.08560000       0.07340000
H        1.00050000       1.71090000       0.01480000
H       -0.58220000       1.84050000      -0.81720000
H       -0.52180000       1.78350000       0.95880000
H       -0.32290000      -2.59460000      -0.07950000
H       -2.58920000      -3.70000000      -0.04140000
H       -4.36330000       1.02960000       0.16970000
