17
Properties=species:S:1:pos:R:3 gdb_125988=T pbc="F F F"
C       -0.31260000       1.49200000       0.07900000
C       -0.01480000      -0.00030000      -0.00170000
C        0.82920000      -0.48580000      -1.25830000
N        1.77550000      -1.02130000      -0.27280000
N        3.06260000      -1.39720000      -0.08220000
C        3.20040000      -1.17940000       1.23080000
O        4.34330000      -1.50160000       1.87170000
C        2.05690000      -0.61030000       1.86600000
C        1.16550000      -0.52700000       0.81420000
H        0.59670000       2.08470000      -0.06060000
H       -1.03820000       1.78650000      -0.68610000
H       -0.73320000       1.74790000       1.05640000
H       -0.93310000      -0.58130000       0.12840000
H        0.37910000      -1.23810000      -1.91210000
H        1.23290000       0.33860000      -1.85430000
H        4.94220000      -1.86700000       1.20830000
H        1.95380000      -0.34560000       2.90370000
