19
Properties=species:S:1:pos:R:3 gdb_57816=T pbc="F F F"
C       -0.10710000       1.34680000      -0.22230000
C       -0.23150000      -0.17070000       0.02310000
C        0.65350000      -0.62710000       1.20000000
C       -1.62810000      -0.55020000       0.23670000
C       -2.77810000      -0.85180000       0.43190000
C       -4.16380000      -1.23770000       0.65360000
O       -4.33050000      -2.66500000       0.78540000
C       -4.38930000      -3.36900000      -0.36280000
O       -4.48810000      -4.55810000      -0.38260000
H        0.93580000       1.60960000      -0.42420000
H       -0.71450000       1.66060000      -1.07520000
H       -0.43850000       1.90790000       0.65670000
H        0.11810000      -0.68660000      -0.88190000
H        0.57750000      -1.70630000       1.35490000
H        1.70060000      -0.37790000       1.00200000
H        0.35040000      -0.12870000       2.12580000
H       -4.54470000      -0.82590000       1.59180000
H       -4.80720000      -0.86540000      -0.15470000
H       -4.34790000      -2.72870000      -1.26540000
