19
Properties=species:S:1:pos:R:3 gdb_79235=T pbc="F F F"
C       -0.00330000       1.58040000      -0.02790000
C        0.03320000       0.08890000       0.03530000
C       -0.00780000      -0.98080000      -1.02160000
C        1.28040000      -1.65030000      -0.52780000
C        0.96610000      -0.98230000       0.81940000
O        1.95420000      -0.73140000       1.74070000
C       -0.33960000      -1.66060000       1.31080000
O       -0.71280000      -1.16010000       2.58950000
C       -1.02880000      -0.99530000       0.13270000
H        0.94840000       1.98510000      -0.39040000
H       -0.79150000       1.92630000      -0.70610000
H       -0.19380000       2.02780000       0.95510000
H       -0.34840000      -0.87620000      -2.04370000
H        1.35980000      -2.74390000      -0.53850000
H        2.16060000      -1.20990000      -1.00420000
H        1.50560000      -0.68600000       2.59870000
H       -0.33880000      -2.75250000       1.40140000
H       -1.06100000      -0.27000000       2.45970000
H       -2.09320000      -0.91930000      -0.05590000
