18
Properties=species:S:1:pos:R:3 gdb_97392=T pbc="F F F"
C        0.43220000       1.82480000       0.91970000
N        0.98710000       0.50320000       0.71270000
C        0.23230000      -0.36850000       0.19260000
N        0.68970000      -1.65470000      -0.03720000
C       -0.06630000      -2.64840000      -0.59510000
N       -1.27440000      -2.56650000      -0.98780000
C       -1.61970000      -3.89560000      -1.50200000
C       -0.32920000      -4.74330000      -1.31650000
O        0.60890000      -3.82290000      -0.71320000
H        0.48800000       2.08580000       1.98310000
H        1.03390000       2.56600000       0.38060000
H       -0.61500000       1.92500000       0.59300000
H       -0.80680000      -0.22420000      -0.11970000
H        1.63990000      -1.86900000       0.22420000
H       -2.46750000      -4.31330000      -0.94710000
H       -1.92170000      -3.83400000      -2.55360000
H       -0.45540000      -5.59250000      -0.63970000
H        0.10040000      -5.09890000      -2.25690000
