15
Properties=species:S:1:pos:R:3 gdb_128516=T pbc="F F F"
C        0.08080000       1.40440000      -0.03390000
O        0.04880000      -0.02570000       0.00140000
C        0.58400000      -0.66910000      -1.03760000
C        0.66170000      -2.01230000      -1.25860000
N        0.14510000      -3.09040000      -0.51400000
C        1.32300000      -2.05610000      -2.51340000
O        1.64650000      -3.19410000      -3.15080000
N        1.62280000      -0.87490000      -3.00560000
O        1.12690000       0.03580000      -2.04590000
H        1.11060000       1.77220000      -0.07130000
H       -0.46860000       1.78590000      -0.89970000
H       -0.40010000       1.73090000       0.88800000
H       -0.10390000      -2.79790000       0.42350000
H        0.81420000      -3.84940000      -0.44800000
H        2.09760000      -2.95110000      -3.97040000
