21
Properties=species:S:1:pos:R:3 gdb_122270=T pbc="F F F"
C        0.12940000       1.41760000       0.30000000
C       -0.07440000      -0.06290000      -0.03140000
C        0.76740000      -0.50800000      -1.21780000
O        0.51320000      -1.89800000      -1.43890000
C        1.24330000      -2.47600000      -2.45950000
C        2.69690000      -2.87660000      -2.18900000
C        1.63230000      -3.92490000      -2.23800000
C        0.91580000      -2.08770000      -3.85630000
O        0.09660000      -1.26250000      -4.17440000
H        1.17350000       1.63100000       0.55490000
H       -0.14170000       2.05660000      -0.54740000
H       -0.48730000       1.71710000       1.15220000
H        0.17920000      -0.68570000       0.83460000
H       -1.12760000      -0.25940000      -0.26120000
H        0.50890000       0.06600000      -2.11470000
H        1.83860000      -0.35490000      -1.01060000
H        3.41380000      -2.81410000      -3.00050000
H        3.07530000      -2.58410000      -1.21680000
H        1.28180000      -4.33930000      -1.30050000
H        1.59710000      -4.60080000      -3.08530000
H        1.51400000      -2.64020000      -4.61980000
