19
Properties=species:S:1:pos:R:3 gdb_104754=T pbc="F F F"
C        0.34270000      -0.67710000       1.73610000
N        0.02470000      -0.36800000       0.34350000
C       -1.31330000      -0.66710000      -0.07780000
C       -2.45930000       0.03470000       0.62940000
O       -2.25970000       1.42910000       0.44590000
C       -1.46670000      -0.96240000      -1.54010000
C       -1.58030000      -2.09980000      -0.53440000
C       -0.54990000      -3.09490000      -0.44500000
N        0.24920000      -3.92750000      -0.36160000
H        1.39160000      -0.42810000       1.91810000
H       -0.26660000      -0.13720000       2.47890000
H        0.22490000      -1.75090000       1.90670000
H        0.20520000       0.61180000       0.15260000
H       -3.42140000      -0.29520000       0.20720000
H       -2.45950000      -0.23020000       1.69700000
H       -2.85940000       1.90280000       1.02940000
H       -2.37800000      -0.66360000      -2.04490000
H       -0.56410000      -0.93310000      -2.13680000
H       -2.57640000      -2.49050000      -0.35240000
