16
Properties=species:S:1:pos:R:3 gdb_33058=T pbc="F F F"
C       -0.00150000       1.41320000      -0.01760000
O       -0.00040000       0.00330000       0.00350000
C        0.63810000      -0.55910000      -1.11220000
C        0.57970000      -2.04220000      -0.98340000
C        0.04850000      -2.82200000      -0.03460000
O        0.24210000      -4.15290000      -0.35200000
C        0.92300000      -4.22430000      -1.55080000
O        1.24640000      -5.24110000      -2.10000000
N        1.12600000      -2.91270000      -1.93040000
H        1.02140000       1.82020000      -0.01760000
H       -0.53110000       1.80590000      -0.89920000
H       -0.51700000       1.74820000       0.88470000
H        0.15010000      -0.23790000      -2.05180000
H        1.69000000      -0.22260000      -1.17830000
H       -0.47180000      -2.59850000       0.87780000
H        1.60770000      -2.67320000      -2.77880000
