15
Properties=species:S:1:pos:R:3 gdb_57823=T pbc="F F F"
C       -0.07530000       1.55210000      -0.21280000
C        0.08570000       0.05190000       0.07090000
O        0.73900000      -0.15780000       1.29120000
C       -1.26450000      -0.66750000       0.09050000
O       -1.62450000      -1.26650000       1.08770000
C       -2.06310000      -0.61800000      -1.10640000
C       -2.72640000      -0.57880000      -2.12170000
C       -3.47090000      -0.53820000      -3.25540000
C       -4.13260000      -0.50100000      -4.26490000
H        0.91070000       2.02200000      -0.19300000
H       -0.52850000       1.72620000      -1.19260000
H       -0.69510000       2.02010000       0.55750000
H        0.66450000      -0.39910000      -0.75440000
H        0.14090000      -0.71220000       1.81820000
H       -4.71680000      -0.47030000      -5.15190000
