16
Properties=species:S:1:pos:R:3 gdb_28019=T pbc="F F F"
C        0.03440000       1.48570000      -0.06870000
C       -0.07830000       0.00580000       0.00080000
C       -1.08610000      -0.87100000      -0.25350000
C       -0.56190000      -2.18540000      -0.00210000
C       -1.28410000      -3.50060000      -0.11240000
C       -1.81490000      -3.75590000      -1.45580000
N       -2.24170000      -3.94990000      -2.51160000
C        0.72640000      -2.00080000       0.38480000
O        1.03650000      -0.67810000       0.39510000
H        0.80930000       1.79470000      -0.77900000
H       -0.91650000       1.91480000      -0.39110000
H        0.29310000       1.91420000       0.90600000
H       -2.08040000      -0.62200000      -0.59080000
H       -0.61320000      -4.32370000       0.15560000
H       -2.12530000      -3.54430000       0.59130000
H        1.51520000      -2.67600000       0.67400000
