15
Properties=species:S:1:pos:R:3 gdb_18490=T pbc="F F F"
N       -0.09170000      -1.08670000      -0.28070000
C       -0.06130000       0.04810000      -0.06380000
C        0.00900000       1.48230000       0.20560000
C        1.43230000       2.03610000       0.06270000
C        2.07840000       2.05780000      -1.37300000
C        2.15180000       3.58500000      -1.26070000
O        0.81460000       4.05870000      -1.04850000
C        1.54670000       3.57240000       0.08060000
H       -0.64900000       2.01080000      -0.49210000
H       -0.37290000       1.66720000       1.21670000
H        2.10280000       1.56810000       0.78730000
H        3.05500000       1.57060000      -1.39410000
H        1.46450000       1.68050000      -2.19420000
H        2.85420000       4.27660000      -1.70990000
H        1.65940000       4.24000000       0.92720000
