18
Properties=species:S:1:pos:R:3 gdb_62817=T pbc="F F F"
C       -0.13930000       1.55690000      -0.03660000
C        0.01380000       0.04250000      -0.03340000
O       -1.22560000      -0.55380000      -0.32720000
C        1.19760000      -0.66780000      -0.75660000
C        2.14800000      -0.14850000       0.36260000
C        0.87720000      -0.66100000       1.10670000
C        0.94080000      -1.90540000       0.16170000
C        0.60960000      -0.63480000       2.52000000
N        0.36040000      -0.58970000       3.64930000
H        0.78850000       2.10000000       0.14100000
H       -0.54770000       1.87500000      -1.00030000
H       -0.84730000       1.85970000       0.74490000
H       -1.90380000      -0.12750000       0.20730000
H        1.38750000      -0.67460000      -1.82910000
H        3.04450000      -0.74780000       0.52780000
H        2.37460000       0.91520000       0.41020000
H        0.01290000      -2.45070000       0.01570000
H        1.79590000      -2.56370000       0.32390000
