19
Properties=species:S:1:pos:R:3 gdb_63126=T pbc="F F F"
C       -0.01830000       1.53970000       0.01330000
C        0.02210000       0.02360000      -0.01240000
C       -1.20490000      -0.61580000      -0.64310000
C        1.29530000      -0.75010000      -0.24050000
C        2.48050000      -0.09140000       0.45270000
O        1.75240000       0.02060000       1.70330000
C        0.66060000      -0.71720000       1.16530000
C        0.03440000      -1.76570000       1.98360000
O        0.32720000      -1.99710000       3.13160000
H        0.78040000       1.95520000       0.62880000
H        0.06700000       1.94520000      -1.00110000
H       -0.97090000       1.88300000       0.43030000
H       -1.32520000      -0.24740000      -1.66800000
H       -1.13220000      -1.70570000      -0.69450000
H       -2.11430000      -0.36120000      -0.08930000
H        1.35240000      -1.58160000      -0.93160000
H        3.33940000      -0.76030000       0.57130000
H        2.81450000       0.88070000       0.07370000
H       -0.75630000      -2.34140000       1.45610000
