21
Properties=species:S:1:pos:R:3 gdb_38299=T pbc="F F F"
C        0.06340000       1.44750000      -0.30010000
C        1.58430000       1.27440000      -0.01800000
C        1.15140000       0.16680000       0.98620000
C       -0.09410000      -0.05950000       0.07340000
C        0.18110000      -1.03010000      -1.12570000
C        0.55620000      -0.29100000      -2.44800000
C        2.02150000      -0.26790000      -1.92350000
C        1.64420000      -1.57180000      -1.16170000
O        2.37990000       0.84700000      -1.11660000
H       -0.37300000       2.07730000       0.48070000
H       -0.26400000       1.82530000      -1.26670000
H        2.12840000       2.13460000       0.37830000
H        1.83610000      -0.64700000       1.21630000
H        0.84960000       0.63810000       1.92610000
H       -1.02150000      -0.34320000       0.57540000
H       -0.61600000      -1.77360000      -1.19190000
H        0.49350000      -0.97950000      -3.29580000
H        0.07140000       0.64190000      -2.72870000
H        2.82560000      -0.32510000      -2.66050000
H        2.17160000      -1.83040000      -0.24570000
H        1.71600000      -2.41870000      -1.85040000
