18
Properties=species:S:1:pos:R:3 gdb_51715=T pbc="F F F"
O       -0.01750000      -0.00370000      -0.78510000
C       -0.03010000       1.09200000      -0.26680000
N        1.05350000       1.72480000       0.26310000
C        2.38580000       1.15440000       0.27230000
C        3.43540000       1.99860000      -0.48930000
C        4.78070000       1.44950000       0.00420000
C        4.51490000       0.98250000       1.44160000
O        5.35170000       0.67590000       2.24870000
C        2.99920000       0.97790000       1.67290000
H       -0.94820000       1.70460000      -0.16940000
H        0.91700000       2.63900000       0.66730000
H        2.28220000       0.17930000      -0.21090000
H        3.30150000       1.93930000      -1.57150000
H        3.33000000       3.05290000      -0.20210000
H        5.08460000       0.56630000      -0.57320000
H        5.61380000       2.15500000      -0.03120000
H        2.76130000       1.84130000       2.31050000
H        2.67400000       0.08310000       2.20760000
