21
Properties=species:S:1:pos:R:3 gdb_53697=T pbc="F F F"
C        0.06970000       1.33070000      -0.47830000
C       -0.00310000      -0.07600000      -0.10920000
C       -0.05120000      -1.23830000       0.20110000
C       -0.14320000      -2.64720000       0.56400000
C       -1.49270000      -3.26050000       0.17790000
O       -1.47390000      -4.61790000       0.58000000
C       -2.65630000      -5.29460000       0.29170000
C       -2.85640000      -5.87710000      -1.08520000
C       -2.54730000      -6.77120000       0.10090000
H        0.97600000       1.54550000      -1.05550000
H       -0.78910000       1.62650000      -1.09130000
H        0.08090000       1.97640000       0.40690000
H        0.65220000      -3.22350000       0.07570000
H        0.00080000      -2.77730000       1.64360000
H       -2.31000000      -2.71760000       0.67740000
H       -1.65490000      -3.17680000      -0.90640000
H       -3.53330000      -4.90210000       0.80900000
H       -3.85490000      -5.89150000      -1.50820000
H       -2.05860000      -5.72240000      -1.80310000
H       -1.54890000      -7.18950000       0.15540000
H       -3.33070000      -7.40490000       0.50070000
