12
Properties=species:S:1:pos:R:3 gdb_23625=T pbc="F F F"
F        0.05510000       0.06820000       0.00280000
C       -0.05720000       1.38900000       0.01140000
N       -1.19500000       1.94070000       0.02990000
C       -1.26030000       3.35920000       0.03850000
N       -2.36490000       4.00240000       0.05700000
C        0.02090000       4.07130000       0.02500000
C        1.17710000       3.39400000       0.00560000
N        1.15760000       2.00340000      -0.00170000
H       -3.13820000       3.33450000       0.06390000
H        0.00430000       5.15230000       0.03110000
H        2.15790000       3.84980000      -0.00520000
H        1.99860000       1.45120000      -0.01610000
