18
Properties=species:S:1:pos:R:3 gdb_80773=T pbc="F F F"
O       -0.02940000       1.43930000       0.10160000
C       -0.06140000       0.04490000       0.10870000
C       -0.44840000      -0.74820000       1.31890000
C       -1.55550000      -0.00050000       2.06890000
C       -2.44300000      -0.10540000       0.78840000
O       -2.87950000       1.11600000       0.17630000
C       -4.06760000       1.62160000       0.56630000
N       -4.42010000       2.77050000       0.18470000
C       -1.31610000      -0.77380000       0.02560000
H       -0.89250000       1.76350000      -0.18210000
H        0.76480000      -0.38670000      -0.45340000
H        0.16720000      -1.53820000       1.72940000
H       -1.97800000      -0.54330000       2.91600000
H       -1.29620000       1.01720000       2.37000000
H       -3.30590000      -0.76250000       0.93740000
H       -4.64390000       0.93320000       1.20000000
H       -5.34870000       2.98760000       0.54030000
H       -1.45440000      -1.55000000      -0.71760000
