20
Properties=species:S:1:pos:R:3 gdb_83976=T pbc="F F F"
C       -0.01560000       1.45320000      -0.04360000
N       -0.00530000       0.01390000      -0.01680000
C       -1.07760000      -0.99200000      -0.04890000
C       -1.80360000      -1.14080000      -1.39300000
C       -0.77890000      -1.83700000      -2.31240000
C       -0.04000000      -2.82060000      -1.37940000
C        0.04990000      -2.08190000      -0.03570000
C        1.03200000      -0.88560000      -0.01020000
O        2.22810000      -0.73690000      -0.00950000
H        1.02420000       1.78990000      -0.04690000
H       -0.51310000       1.84130000      -0.94100000
H       -0.51900000       1.87000000       0.83760000
H       -1.74500000      -0.93810000       0.81700000
H       -2.67950000      -1.78430000      -1.24590000
H       -2.16670000      -0.18740000      -1.78970000
H       -1.24660000      -2.33270000      -3.16680000
H       -0.07390000      -1.10100000      -2.71300000
H       -0.62790000      -3.73730000      -1.25500000
H        0.94460000      -3.11020000      -1.75660000
H        0.11430000      -2.72980000       0.83920000
