23
Properties=species:S:1:pos:R:3 gdb_61404=T pbc="F F F"
C        0.27800000       1.71980000       0.22000000
C        0.05620000       0.20300000       0.07940000
C        0.51220000      -0.38020000      -1.27910000
C       -0.30260000      -0.00680000      -2.53590000
C        0.23880000      -0.80660000      -3.73220000
C       -1.80580000      -0.26570000      -2.36140000
O       -0.07100000       1.39060000      -2.76550000
C        0.84030000      -0.50520000       1.16870000
O        0.37180000      -1.23110000       2.00730000
H        1.34190000       1.96690000       0.12660000
H       -0.25110000       2.26070000      -0.56370000
H       -0.06660000       2.07160000       1.19770000
H       -0.99530000      -0.04360000       0.25600000
H        1.55330000      -0.08820000      -1.46480000
H        0.50070000      -1.47450000      -1.20490000
H        0.08550000      -1.88240000      -3.60030000
H       -0.27510000      -0.50850000      -4.65370000
H        1.30820000      -0.61940000      -3.86430000
H       -2.22980000       0.37930000      -1.58840000
H       -2.33620000      -0.06050000      -3.29870000
H       -2.00400000      -1.30790000      -2.09160000
H       -0.56720000       1.64400000      -3.55130000
H        1.93840000      -0.29910000       1.14040000
