17
Properties=species:S:1:pos:R:3 gdb_67074=T pbc="F F F"
C       -0.05090000       1.55970000      -0.07970000
C        0.00620000       0.07190000      -0.02300000
C        0.58870000      -1.01690000      -0.90740000
C        1.36830000      -1.63000000       0.24800000
C        0.30380000      -0.95250000       1.17140000
N       -1.00140000      -1.61160000       0.87820000
C       -0.89910000      -1.03280000      -0.46200000
C        0.60480000      -0.63090000       2.54460000
N        0.87400000      -0.35290000       3.63430000
H        0.91980000       2.01000000       0.15390000
H       -0.33690000       1.88770000      -1.08470000
H       -0.78750000       1.95630000       0.62680000
H        0.88160000      -0.93780000      -1.94620000
H        1.45570000      -2.71940000       0.33180000
H        2.34970000      -1.16550000       0.36510000
H       -0.93670000      -2.63150000       0.90930000
H       -1.72920000      -1.00840000      -1.15610000
