23
Properties=species:S:1:pos:R:3 gdb_53580=T pbc="F F F"
C       -0.04700000       1.45430000      -0.37110000
C       -0.02050000       0.02930000      -0.07200000
C        0.00890000      -1.14910000       0.17360000
C        0.01430000      -2.57960000       0.47430000
C       -1.35470000      -3.22200000       0.28410000
C       -1.79490000      -3.74370000      -1.06310000
C       -1.56130000      -4.70930000       0.07980000
C       -0.37570000      -5.65420000       0.00420000
C       -2.78260000      -5.32520000       0.73910000
H        0.69570000       1.71690000      -1.13300000
H       -1.02820000       1.76450000      -0.74770000
H        0.16860000       2.05490000       0.51990000
H        0.75750000      -3.07840000      -0.15880000
H        0.35230000      -2.73220000       1.50890000
H       -2.12800000      -2.73000000       0.86860000
H       -2.81210000      -3.55310000      -1.38940000
H       -1.06400000      -3.72730000      -1.86630000
H        0.47890000      -5.21540000      -0.51680000
H       -0.04040000      -5.95440000       1.00450000
H       -0.65110000      -6.56780000      -0.53590000
H       -3.11640000      -6.21660000       0.19430000
H       -2.56510000      -5.63020000       1.77000000
H       -3.61970000      -4.62090000       0.76950000
