18
Properties=species:S:1:pos:R:3 gdb_37422=T pbc="F F F"
C        0.12220000       1.52050000      -0.13220000
C        1.31690000       0.64810000      -0.02850000
C        1.93420000       0.45910000       1.34970000
O        1.49510000       1.42030000       2.35310000
C        0.69660000       0.43210000       3.04740000
C       -0.75280000       0.36770000       2.52560000
C       -0.27040000      -0.52240000       1.32830000
C        1.11780000      -0.65980000       2.03410000
N       -0.04440000       0.06490000      -0.01510000
H       -0.07970000       2.15880000       0.72040000
H       -0.17350000       1.92570000      -1.09640000
H        1.93610000       0.42800000      -0.89450000
H        3.02550000       0.38810000       1.33080000
H        0.88920000       0.43690000       4.12160000
H       -1.38660000      -0.21880000       3.19830000
H       -1.25190000       1.31480000       2.31070000
H       -0.84990000      -1.43740000       1.19850000
H        1.54600000      -1.63340000       2.26040000
