18
Properties=species:S:1:pos:R:3 gdb_113240=T pbc="F F F"
C       -0.03530000       1.69250000       0.05980000
C       -0.14810000       0.19480000       0.23790000
C       -1.38980000      -0.44010000      -0.39840000
C       -1.49440000      -0.16670000      -1.83190000
N       -1.57310000       0.06480000      -2.96100000
O        1.04530000      -0.56880000       0.04000000
C        0.46280000      -0.54570000       1.35760000
C        1.32060000       0.04830000       2.44810000
O        2.36060000      -0.84490000       2.80610000
H        0.89800000       2.07350000       0.47380000
H       -0.06300000       1.94470000      -1.00470000
H       -0.87120000       2.20410000       0.54880000
H       -1.36170000      -1.52330000      -0.24890000
H       -2.29380000      -0.06190000       0.09380000
H        0.00430000      -1.49510000       1.64350000
H        1.71670000       1.02570000       2.14420000
H        0.71810000       0.19470000       3.35150000
H        2.88700000      -0.99720000       2.01300000
