23
Properties=species:S:1:pos:R:3 gdb_87981=T pbc="F F F"
C       -0.53180000       1.39500000       0.24670000
C       -0.01180000      -0.01020000      -0.03350000
C       -1.09890000      -0.87690000      -0.68210000
C        1.34010000      -0.10200000      -0.81940000
C        1.86550000      -1.14110000       0.21100000
C        0.70730000      -0.74280000       1.13150000
C        0.87610000      -0.22720000       2.54210000
C        0.11720000      -1.50490000       2.26950000
O       -1.28090000      -1.49960000       2.37740000
H        0.24210000       2.02750000       0.69350000
H       -0.86420000       1.87550000      -0.68110000
H       -1.38710000       1.36870000       0.93140000
H       -1.42400000      -0.43210000      -1.63010000
H       -0.73040000      -1.88560000      -0.89650000
H       -1.96540000      -0.97430000      -0.02420000
H        1.27220000      -0.42710000      -1.86090000
H        1.90180000       0.83550000      -0.78170000
H        1.79350000      -2.17280000      -0.14780000
H        2.87510000      -0.98040000       0.59860000
H        1.85740000      -0.28740000       3.00420000
H        0.28390000       0.63320000       2.83860000
H        0.59070000      -2.44870000       2.54590000
H       -1.50500000      -1.44940000       3.31260000
