18
Properties=species:S:1:pos:R:3 gdb_72042=T pbc="F F F"
O       -0.13250000       1.35680000      -0.04740000
C        0.01060000      -0.01680000      -0.02140000
C        1.11520000      -0.77560000      -0.76630000
N        0.70960000      -2.17670000      -0.45620000
C        0.58310000      -2.11750000       1.03630000
C       -0.33330000      -0.90420000       1.17510000
C       -1.19490000      -0.91980000      -0.08770000
O       -2.46900000      -0.39360000      -0.17580000
C       -0.72360000      -2.15290000      -0.86750000
H        0.52740000       1.74140000       0.53950000
H        1.10370000      -0.60140000      -1.84590000
H        2.12210000      -0.57580000      -0.38500000
H        0.15010000      -3.04990000       1.41120000
H        1.57050000      -1.98600000       1.48950000
H       -0.69990000      -0.48260000       2.10170000
H       -3.06170000      -0.94570000       0.34540000
H       -0.81130000      -2.03560000      -1.95130000
H       -1.22240000      -3.08100000      -0.56910000
