17
Properties=species:S:1:pos:R:3 gdb_123271=T pbc="F F F"
C        0.01600000       1.35670000      -0.62480000
C        1.30290000       2.14360000      -0.64080000
C        2.43960000       1.63270000      -0.16360000
O        2.48680000       0.55450000       2.86870000
C        1.87460000       0.37710000       1.85300000
C        0.34940000       0.25170000       1.68130000
C        0.19020000       0.04810000       0.16340000
O        1.43720000      -0.56150000      -0.22280000
C        2.42600000       0.23700000       0.41680000
H       -0.79260000       1.95390000      -0.18210000
H       -0.29910000       1.13480000      -1.65290000
H        1.27930000       3.14290000      -1.06710000
H        3.36320000       2.20040000      -0.12750000
H        0.01060000      -0.62700000       2.23820000
H       -0.16050000       1.12670000       2.09160000
H       -0.59980000      -0.66360000      -0.08340000
H        3.38950000      -0.27100000       0.37090000
