18
Properties=species:S:1:pos:R:3 gdb_75058=T pbc="F F F"
C       -0.09990000       1.50480000       0.04910000
C       -0.01760000       0.01660000       0.00250000
C        0.01380000      -0.78130000      -1.06870000
N        0.08600000      -2.15060000      -0.71500000
C        0.00370000      -2.29230000       0.64630000
O       -0.12780000      -3.31360000       1.28550000
C        0.06600000      -0.86120000       1.23870000
C        1.37280000      -0.68150000       2.02450000
O       -1.06160000      -0.66350000       2.08100000
H        0.77810000       1.94790000       0.53570000
H       -0.17620000       1.93020000      -0.95570000
H       -0.97610000       1.82430000       0.62520000
H        0.00640000      -0.51150000      -2.11580000
H       -0.06740000      -2.91710000      -1.35050000
H        2.24880000      -0.78100000       1.37590000
H        1.38780000       0.30600000       2.49330000
H        1.43350000      -1.44470000       2.80700000
H       -1.16580000      -1.48360000       2.58300000
