17
Properties=species:S:1:pos:R:3 gdb_78206=T pbc="F F F"
C       -0.15030000       1.65930000      -0.05290000
C        0.04100000       0.15480000      -0.05990000
O       -1.18420000      -0.52670000       0.20360000
C        0.69260000      -0.55860000      -1.25690000
C        2.13570000      -0.27460000      -1.38770000
O        2.65450000       0.99110000      -1.10180000
C        1.74060000      -1.27060000      -0.31410000
C        1.11560000      -0.54290000       0.83560000
O        1.21060000      -0.63270000       2.02850000
H        0.77460000       2.17720000      -0.30650000
H       -0.93030000       1.93710000      -0.76870000
H       -0.47310000       1.98350000       0.94330000
H       -1.40200000      -0.36790000       1.12990000
H        0.11020000      -1.02060000      -2.04340000
H        2.60260000      -0.75960000      -2.24640000
H        3.53600000       0.87760000      -0.73010000
H        2.12080000      -2.28500000      -0.30560000
