19
Properties=species:S:1:pos:R:3 gdb_71490=T pbc="F F F"
C        0.04950000       1.47100000      -0.12380000
C       -0.00240000      -0.01600000       0.01740000
O        0.56700000      -0.85050000      -1.05650000
C        0.06780000      -1.80910000      -0.06560000
C        0.61230000      -0.95640000       1.12240000
C       -0.39450000      -1.04800000       2.24840000
C       -1.58020000      -1.06780000       1.63140000
C       -1.25710000      -0.98730000       0.14920000
C       -2.33610000      -0.98180000      -0.90410000
H        1.08450000       1.81220000      -0.22270000
H       -0.50610000       1.79380000      -1.01000000
H       -0.39330000       1.94310000       0.75890000
H        0.19920000      -2.87380000      -0.27770000
H        1.68510000      -0.92480000       1.30610000
H       -0.17300000      -1.08210000       3.30610000
H       -2.57260000      -1.12170000       2.05900000
H       -3.01390000      -0.13030000      -0.77650000
H       -1.88420000      -0.91750000      -1.89800000
H       -2.94090000      -1.89410000      -0.85890000
