17
Properties=species:S:1:pos:R:3 gdb_62538=T pbc="F F F"
C       -0.14660000       1.58200000      -0.00300000
C       -0.02010000       0.07150000       0.08540000
O       -1.28590000      -0.45080000       0.32430000
C        0.83650000      -0.57580000      -1.10850000
N        1.94070000      -0.69070000      -0.12980000
C        1.13560000      -0.42370000       0.98050000
N        1.22790000      -0.54360000       2.23350000
C        0.31000000      -1.83850000      -1.59180000
C       -0.13970000      -2.89550000      -1.95010000
H        0.81590000       2.04170000      -0.24030000
H       -0.87410000       1.84920000      -0.77500000
H       -0.49560000       1.97190000       0.95640000
H       -1.21430000      -1.40720000       0.42590000
H        1.06290000       0.10190000      -1.93740000
H        2.65470000      -1.40590000      -0.17180000
H        2.11710000      -0.96090000       2.51580000
H       -0.52910000      -3.82370000      -2.29000000
