17
Properties=species:S:1:pos:R:3 gdb_48673=T pbc="F F F"
O       -0.11600000       0.03420000       0.23970000
C        0.00510000       1.19690000      -0.05770000
C        1.28690000       1.93580000      -0.03380000
C        1.24540000       3.42750000       0.16880000
C        1.61250000       2.90050000      -1.19230000
C        3.07680000       2.73140000      -1.48210000
O        3.63100000       3.08890000      -2.48950000
C        3.72010000       1.96940000      -0.31460000
C        2.56820000       1.21000000       0.37420000
H       -0.86990000       1.80630000      -0.38330000
H        0.26850000       3.89400000       0.24720000
H        2.00810000       3.87870000       0.79440000
H        0.93990000       3.06980000      -2.02410000
H        4.51610000       1.32340000      -0.68870000
H        4.19490000       2.69770000       0.35390000
H        2.67700000       1.16380000       1.46140000
H        2.50530000       0.17950000       0.01480000
