15
Properties=species:S:1:pos:R:3 gdb_77057=T pbc="F F F"
N        0.11850000       1.48330000       0.20100000
C        0.04730000       0.05460000       0.02850000
C       -1.33610000      -0.65440000       0.10760000
C       -2.55370000       0.26400000       0.10550000
C       -3.81560000      -0.47170000       0.08920000
N       -4.81010000      -1.05910000       0.08930000
O       -1.09600000      -1.26860000      -1.19760000
C        0.08330000      -0.58110000      -1.37900000
O        0.76780000      -0.54440000      -2.34810000
H        1.03890000       1.77140000       0.50800000
H       -0.07670000       1.97950000      -0.66170000
H        0.76930000      -0.43480000       0.68680000
H       -1.42830000      -1.43070000       0.86980000
H       -2.51040000       0.89850000       0.99770000
H       -2.51810000       0.93280000      -0.76090000
