19
Properties=species:S:1:pos:R:3 gdb_53458=T pbc="F F F"
C       -0.02310000       1.31020000      -0.57960000
C       -0.04250000      -0.06300000      -0.09630000
C       -0.06310000      -1.19760000       0.30270000
C       -0.08070000      -2.57990000       0.78960000
C       -1.36040000      -3.26470000       0.59050000
C       -2.41140000      -3.83060000       0.42920000
C       -3.66440000      -4.50300000       0.24130000
C       -4.49710000      -4.23630000      -1.00320000
C       -3.81360000      -5.56130000      -0.84100000
H        0.72370000       1.44510000      -1.36990000
H       -0.99650000       1.59830000      -0.99170000
H        0.21620000       2.01350000       0.22560000
H        0.71990000      -3.15010000       0.29690000
H        0.17200000      -2.59280000       1.85950000
H       -4.22850000      -4.68220000       1.15220000
H       -5.57300000      -4.18750000      -0.87880000
H       -4.09100000      -3.53750000      -1.72450000
H       -2.94300000      -5.76410000      -1.45310000
H       -4.41550000      -6.43150000      -0.60460000
