15
Properties=species:S:1:pos:R:3 gdb_127680=T pbc="F F F"
C       -0.37650000       1.36470000      -0.03430000
N        0.06690000      -0.02110000      -0.01520000
N        0.28110000      -0.59990000      -1.22970000
C        0.67170000      -1.81930000      -1.24480000
N        0.88700000      -2.57570000      -0.10680000
C        0.69810000      -2.08230000       1.16480000
O        0.88370000      -2.73940000       2.16540000
C        0.23800000      -0.64690000       1.20840000
N        0.01350000      -0.02660000       2.30170000
H        0.33610000       1.99690000       0.50340000
H       -0.45020000       1.66910000      -1.07670000
H       -1.34520000       1.45820000       0.46510000
H        0.84870000      -2.30020000      -2.19750000
H        1.19480000      -3.53610000      -0.17840000
H        0.20050000      -0.66930000       3.07290000
