17
Properties=species:S:1:pos:R:3 gdb_78616=T pbc="F F F"
O       -0.00660000       1.47330000      -0.09710000
C        0.05220000       0.06910000      -0.01630000
C        0.02830000      -0.59560000       1.37990000
C       -1.50410000      -0.29580000       1.55730000
C       -1.79440000      -1.76810000       1.91500000
O       -3.06500000      -2.32450000       1.67680000
C       -0.71090000      -1.84710000       0.82300000
O       -0.06070000      -2.94630000       0.30310000
C       -1.31850000      -0.61050000       0.02840000
H        0.89020000       1.81730000      -0.03940000
H        0.77400000      -0.35070000      -0.72920000
H        0.77550000      -0.59950000       2.17440000
H       -1.92990000       0.61270000       1.97200000
H       -1.49410000      -2.09960000       2.91430000
H       -3.42880000      -1.91730000       0.88270000
H       -0.72800000      -3.59990000       0.06440000
H       -2.09050000      -0.62010000      -0.74280000
