15
Properties=species:S:1:pos:R:3 gdb_32147=T pbc="F F F"
C       -0.04660000       1.42200000       0.04120000
O       -0.04930000      -0.00410000      -0.01000000
C       -1.24010000      -0.62140000       0.00990000
C       -1.25320000      -2.02460000      -0.04020000
N       -2.40010000      -2.69120000      -0.02370000
C       -3.53420000      -1.99340000       0.04160000
C       -3.50090000      -0.59890000       0.09070000
O       -4.65300000       0.09480000       0.15650000
N       -2.36050000       0.08870000       0.07510000
H        1.00400000       1.71250000       0.01440000
H       -0.57890000       1.84780000      -0.81450000
H       -0.51590000       1.78390000       0.96080000
H       -0.32400000      -2.58140000      -0.09320000
H       -4.47660000      -2.52920000       0.05570000
H       -4.41190000       1.03080000       0.18170000
