17
Properties=species:S:1:pos:R:3 gdb_40707=T pbc="F F F"
C       -0.35520000       1.34630000      -0.11940000
O        0.98770000       0.86690000      -0.07650000
C       -0.07570000      -0.09400000      -0.04070000
C       -0.21300000      -0.80520000       1.26600000
O       -1.30700000      -1.72420000       1.39960000
C        0.01530000      -2.24990000       1.46040000
C        0.42790000      -3.22230000       0.39720000
C       -0.55750000      -4.11480000      -0.23190000
O       -0.00770000      -3.00050000      -0.93940000
H       -0.69080000       1.88030000       0.76920000
H       -0.67060000       1.77680000      -1.06840000
H       -0.18500000      -0.70640000      -0.92970000
H       -0.06090000      -0.15800000       2.13220000
H        0.32940000      -2.56760000       2.45820000
H        1.45950000      -3.56580000       0.48740000
H       -0.24840000      -5.09400000      -0.59250000
H       -1.60430000      -4.01030000       0.04360000
