17
Properties=species:S:1:pos:R:3 gdb_116025=T pbc="F F F"
C       -0.07800000       1.18150000      -0.58710000
O       -0.34530000      -0.21320000      -0.54440000
C       -1.35730000      -0.56670000       0.35440000
O       -2.64150000      -0.18920000      -0.09430000
C       -3.05490000      -0.82480000      -1.29330000
C       -2.79460000      -2.29820000      -1.31620000
C       -1.98250000      -2.89440000      -0.43630000
C       -1.24740000      -2.08980000       0.55120000
O       -0.57450000      -2.55670000       1.44400000
H        0.70840000       1.33050000      -1.32940000
H       -0.96720000       1.75320000      -0.87790000
H        0.27440000       1.54490000       0.38830000
H       -1.23070000      -0.06550000       1.32210000
H       -4.12960000      -0.63010000      -1.38080000
H       -2.57330000      -0.36110000      -2.16990000
H       -3.30010000      -2.86680000      -2.09330000
H       -1.81580000      -3.96640000      -0.42140000
