21
Properties=species:S:1:pos:R:3 gdb_26380=T pbc="F F F"
C       -0.08830000       1.59150000       0.07700000
C       -0.05930000       0.05930000       0.01680000
C       -1.48110000      -0.51400000      -0.03610000
C        0.76930000      -0.46550000      -1.18390000
C        2.22980000      -0.17220000      -1.13110000
C        3.31290000      -0.90050000      -0.74060000
C        4.46150000      -0.05910000      -0.90790000
C        3.99280000       1.11930000      -1.38990000
O        2.63990000       1.06980000      -1.53220000
H        0.91740000       2.01480000       0.12870000
H       -0.57660000       2.00570000      -0.81360000
H       -0.64910000       1.93470000       0.95280000
H        0.42650000      -0.31120000       0.92960000
H       -2.00030000      -0.19140000      -0.94680000
H       -1.47460000      -1.60930000      -0.02730000
H       -2.07410000      -0.17480000       0.81940000
H        0.65410000      -1.55360000      -1.24010000
H        0.35000000      -0.05590000      -2.11240000
H        3.29610000      -1.91820000      -0.38200000
H        5.49150000      -0.30510000      -0.70250000
H        4.45900000       2.04730000      -1.67650000
