15
Properties=species:S:1:pos:R:3 gdb_78800=T pbc="F F F"
O       -0.14490000       1.48560000      -0.06980000
C       -0.01830000       0.09230000      -0.06740000
C       -1.31450000      -0.70830000      -0.10410000
C       -0.72960000      -1.75330000      -0.95360000
N       -1.79400000      -0.83930000      -1.53220000
C       -0.73900000      -0.22360000      -2.32520000
N       -0.69570000       0.21240000      -3.50070000
C        0.35610000      -0.63300000      -1.38620000
O        1.66490000      -0.71870000      -1.77060000
H        0.73300000       1.87120000      -0.16130000
H        0.61670000      -0.27450000       0.75170000
H       -2.08130000      -0.78000000       0.65470000
H       -0.79040000      -2.83000000      -1.00080000
H       -1.62750000       0.24750000      -3.91950000
H        1.68370000      -0.71540000      -2.73720000
