16
Properties=species:S:1:pos:R:3 gdb_133758=T pbc="F F F"
O        0.11870000       1.38500000      -0.23490000
C        0.05890000      -0.00570000       0.00130000
C       -1.37700000      -0.57280000       0.02770000
C       -1.38930000      -2.10950000      -0.12190000
O       -2.65100000      -2.63830000      -0.47120000
C       -2.09130000      -0.15560000       1.30250000
F       -2.14380000       1.18550000       1.44470000
F       -3.36750000      -0.59320000       1.34120000
F       -1.48250000      -0.63830000       2.39840000
H       -0.32940000       1.83260000       0.48930000
H        0.59330000      -0.47290000      -0.83110000
H        0.58280000      -0.28770000       0.92700000
H       -1.93390000      -0.14050000      -0.80980000
H       -0.71650000      -2.37640000      -0.94210000
H       -0.98980000      -2.57140000       0.79350000
H       -3.26810000      -2.43770000       0.23910000
