18
Properties=species:S:1:pos:R:3 gdb_80588=T pbc="F F F"
C       -0.07100000       1.57630000      -0.00750000
C        0.06590000       0.07020000      -0.00440000
C        1.34250000      -0.69070000      -0.24730000
N        2.53170000      -0.06060000       0.35010000
H        3.78460000      -1.19050000       1.22070000
H        2.76160000       0.86070000      -0.01470000
C        1.89390000      -0.07670000       1.70310000
C        0.65230000      -0.75810000       1.11440000
C        2.67080000      -0.96690000       2.67950000
O        3.76890000      -1.51520000       2.14990000
O        2.30310000      -1.15570000       3.80800000
H        0.81620000       2.07910000       0.38880000
H       -0.23110000       1.94780000      -1.02500000
H       -0.92340000       1.89170000       0.60260000
H       -0.78150000      -0.44320000      -0.45680000
H        1.45980000      -1.44230000      -1.01940000
H        1.73290000       0.89560000       2.17910000
H        0.13010000      -1.57860000       1.58690000
