21
Properties=species:S:1:pos:R:3 gdb_82956=T pbc="F F F"
C        0.17220000       1.73070000       0.08850000
C        0.07740000       0.22180000       0.04210000
C        1.21240000      -0.69550000      -0.36540000
C        2.62850000      -0.22770000      -0.69200000
C        3.48380000       0.21620000       0.47810000
O        3.13390000       1.43690000       1.14390000
C        2.98930000       0.20460000       1.86260000
C        1.58870000      -0.25200000       2.21940000
C        0.70240000      -0.70740000       1.06270000
H        1.14670000       2.07130000       0.43950000
H       -0.00060000       2.15670000      -0.90690000
H       -0.59430000       2.14280000       0.75540000
H       -0.89350000      -0.12390000      -0.30760000
H        0.91110000      -1.54230000      -0.97520000
H        3.15770000      -1.06500000      -1.16310000
H        2.61770000       0.57620000      -1.43990000
H        4.55780000       0.11440000       0.31640000
H        3.71840000       0.09470000       2.66650000
H        1.70410000      -1.09900000       2.90670000
H        1.10230000       0.54070000       2.80300000
H        0.08740000      -1.56150000       1.33110000
