16
Properties=species:S:1:pos:R:3 gdb_66037=T pbc="F F F"
N       -0.08510000       1.47430000       0.01700000
C        0.02490000       0.02690000      -0.04240000
C        0.20850000      -0.56140000       1.39240000
C       -1.32960000      -0.70860000       1.50500000
C       -1.40960000      -0.63010000      -0.05000000
C       -2.48010000       0.12200000      -0.67730000
N       -3.31980000       0.73800000      -1.17940000
C        0.94690000      -0.46470000      -1.07500000
N        1.68480000      -0.83070000      -1.88710000
H        0.82600000       1.89010000       0.18560000
H       -0.43590000       1.84780000      -0.86090000
H        0.72170000      -1.52460000       1.36960000
H        0.70670000       0.10430000       2.09760000
H       -1.71970000      -1.62040000       1.95640000
H       -1.79220000       0.16150000       1.96890000
H       -1.35630000      -1.62760000      -0.49300000
