18
Properties=species:S:1:pos:R:3 gdb_75532=T pbc="F F F"
C       -0.22160000       1.50530000      -0.02150000
C        0.03110000       0.01420000      -0.07740000
N       -0.15910000      -0.59040000      -1.17830000
C        0.02760000      -2.01420000      -1.35710000
C        1.19270000      -2.65150000      -0.59570000
N        0.94040000      -2.76500000       0.83030000
C        0.75480000      -1.73550000       1.70280000
O        0.84520000      -1.86150000       2.91080000
N        0.45250000      -0.47440000       1.16760000
H        0.68110000       2.04530000       0.28600000
H       -0.52980000       1.84890000      -1.00700000
H       -1.00960000       1.74020000       0.70380000
H       -0.89700000      -2.54480000      -1.09040000
H        0.18690000      -2.18720000      -2.42840000
H        1.34910000      -3.66630000      -0.97160000
H        2.11240000      -2.08440000      -0.79790000
H        1.22530000      -3.60890000       1.30090000
H        0.42490000       0.19590000       1.92220000
