21
Properties=species:S:1:pos:R:3 gdb_101550=T pbc="F F F"
C        0.00540000       1.41460000       0.27790000
C        0.17000000      -0.08930000       0.03770000
C        0.81580000      -0.45870000      -1.31110000
C        2.24900000       0.07690000      -1.44600000
C        0.78240000      -1.98100000      -1.50630000
C        1.03320000      -2.44710000      -2.91970000
O        1.10880000      -1.73430000      -3.89490000
C        1.18060000      -3.96220000      -3.13960000
O        1.15650000      -4.77320000      -2.25220000
H        0.96890000       1.92830000       0.34330000
H       -0.56780000       1.88330000      -0.53000000
H       -0.52840000       1.60120000       1.21480000
H        0.76250000      -0.52840000       0.85270000
H       -0.81750000      -0.56580000       0.09300000
H        0.21270000      -0.01320000      -2.11320000
H        2.89070000      -0.32030000      -0.64970000
H        2.68290000      -0.20490000      -2.40860000
H        2.27640000       1.16780000      -1.38240000
H        1.49350000      -2.49570000      -0.84620000
H       -0.19600000      -2.39620000      -1.21980000
H        1.31750000      -4.22550000      -4.21020000
