14
Properties=species:S:1:pos:R:3 gdb_132766=T pbc="F F F"
C       -0.01500000       1.53840000       0.00670000
C        0.00360000       0.03650000       0.01230000
C        0.07490000      -0.70920000      -1.16160000
F        0.12810000      -0.05710000      -2.32760000
C        0.09170000      -2.09640000      -1.14990000
N        0.04060000      -2.79400000      -0.01400000
C       -0.02830000      -2.11850000       1.13200000
C       -0.04790000      -0.72910000       1.17310000
F       -0.11820000      -0.11490000       2.35880000
H        0.88620000       1.93580000      -0.47080000
H       -0.87050000       1.91370000      -0.56360000
H       -0.07360000       1.92760000       1.02300000
H        0.14790000      -2.64430000      -2.08570000
H       -0.07000000      -2.68390000       2.05820000
