18
Properties=species:S:1:pos:R:3 gdb_78258=T pbc="F F F"
C       -0.22420000       1.33970000      -0.16840000
N        0.20600000      -0.04160000      -0.01520000
C        1.57850000      -0.48420000      -0.10190000
C        0.79000000      -0.58450000       1.17730000
C        1.76510000       0.40890000       1.90210000
C        2.49230000      -0.26940000       3.02180000
O        3.26920000      -1.19000000       2.87280000
C        2.58210000       0.50410000       0.53900000
O        3.90960000       0.08450000       0.56260000
H        0.41200000       2.08860000       0.32360000
H       -0.26230000       1.57570000      -1.23570000
H       -1.23610000       1.43570000       0.23660000
H        1.84940000      -1.24670000      -0.82530000
H        0.32660000      -1.43810000       1.66030000
H        1.30080000       1.33010000       2.26660000
H        2.25920000       0.09570000       4.04430000
H        2.58130000       1.50820000       0.10400000
H        3.96000000      -0.69390000       1.14050000
