18
Properties=species:S:1:pos:R:3 gdb_33115=T pbc="F F F"
N       -0.48570000       2.06120000       0.52700000
H       -0.79880000       1.88670000      -0.42400000
H        0.44670000       2.45480000       0.44980000
H       -2.41660000       3.22650000       1.91540000
C       -0.44030000       0.80120000       1.27540000
C       -1.85690000       0.26670000       1.55980000
C       -2.67830000       1.13070000       2.46360000
C       -3.07920000       0.84510000       3.70160000
O       -3.82500000       1.84000000       4.31540000
C       -3.94640000       2.89270000       3.42190000
O       -4.54580000       3.88670000       3.69770000
C       -3.20640000       2.50550000       2.14620000
H        0.13090000       0.00530000       0.76810000
H        0.06290000       0.99580000       2.22920000
H       -2.37450000       0.13040000       0.59850000
H       -1.76450000      -0.73220000       2.00210000
H       -2.92520000      -0.03370000       4.31120000
H       -3.90190000       2.52690000       1.29840000
