16
Properties=species:S:1:pos:R:3 gdb_14914=T pbc="F F F"
C        0.03160000      -1.19710000      -0.03770000
C        0.04480000       0.00320000      -0.00600000
C        0.01290000       1.45900000       0.05200000
C       -0.72740000       1.98900000       1.29580000
C       -0.57820000       3.51160000       1.34170000
O        0.79080000       3.88240000       1.25090000
C        1.37590000       3.35800000       0.09120000
O        1.35490000       1.95290000       0.05060000
H        0.03210000      -2.25870000      -0.07220000
H       -0.50200000       1.83920000      -0.84930000
H       -1.78270000       1.70060000       1.25980000
H       -0.27590000       1.54250000       2.18620000
H       -1.14630000       3.97250000       0.51500000
H       -0.95380000       3.92390000       2.28140000
H        0.86350000       3.76320000      -0.80390000
H        2.42560000       3.65630000       0.09450000
