12
Properties=species:S:1:pos:R:3 gdb_2259=T pbc="F F F"
O       -0.08880000       1.45630000       0.05240000
C        0.00140000       0.09000000       0.06760000
C       -0.24410000      -0.79940000      -1.16260000
C       -1.08670000      -0.94940000       0.06060000
O       -0.36180000      -1.75680000       1.03030000
C        0.61460000      -0.76290000       1.14320000
N        1.59080000      -0.65470000       1.91710000
H        0.72690000       1.81180000      -0.31860000
H       -0.70760000      -0.25310000      -1.97910000
H        0.44620000      -1.58810000      -1.44520000
H       -2.16120000      -0.89090000       0.15700000
H        1.65940000      -1.45320000       2.55010000
