21
Properties=species:S:1:pos:R:3 gdb_96313=T pbc="F F F"
C        0.02420000       1.52610000       0.16350000
C        0.02670000       0.02890000       0.01020000
C       -1.08820000      -0.69790000       0.09920000
C       -1.18420000      -2.20560000      -0.01490000
O       -2.54040000      -2.63890000       0.03140000
C       -0.59410000      -2.76330000      -1.31350000
C        0.93100000      -2.67390000      -1.38640000
O        1.44740000      -1.35890000      -1.46950000
C        1.38170000      -0.60720000      -0.27010000
H        0.69430000       1.84320000       0.97380000
H        0.38960000       2.01450000      -0.74910000
H       -0.97510000       1.91100000       0.38240000
H       -2.04000000      -0.19320000       0.25950000
H       -0.62390000      -2.66130000       0.82380000
H       -2.92770000      -2.31170000       0.84960000
H       -0.88030000      -3.81970000      -1.38110000
H       -1.03850000      -2.24290000      -2.16790000
H        1.37600000      -3.19600000      -0.52090000
H        1.28180000      -3.18270000      -2.28980000
H        2.13690000       0.17790000      -0.37650000
H        1.68790000      -1.23650000       0.58470000
