16
Properties=species:S:1:pos:R:3 gdb_35533=T pbc="F F F"
C       -0.11890000      -1.22090000      -0.26860000
C       -0.00120000      -0.03460000      -0.11900000
C        0.09240000       1.40220000       0.08960000
C       -0.67260000       1.87820000       1.40040000
C        0.09210000       3.17590000       1.68980000
C        1.02250000       3.57390000       2.87530000
O        2.21380000       3.41680000       1.99710000
C        1.40150000       2.79430000       1.09350000
N        1.52430000       1.84280000       0.27530000
H       -0.20670000      -2.26930000      -0.41270000
H       -0.33230000       1.91180000      -0.78720000
H       -1.74570000       1.99710000       1.23960000
H       -0.51420000       1.12910000       2.18120000
H       -0.37180000       4.05760000       1.24070000
H        0.94590000       4.59810000       3.24180000
H        1.07970000       2.85650000       3.69740000
