18
Properties=species:S:1:pos:R:3 gdb_97423=T pbc="F F F"
C        0.14480000       1.32980000       0.11060000
N        0.21750000      -0.11630000       0.11200000
C        0.58490000      -0.67600000      -0.95090000
O        0.65390000      -2.02500000      -1.03090000
C        1.19850000      -2.55200000      -2.24190000
O        2.59740000      -2.42190000      -2.28490000
C        3.21400000      -3.69400000      -2.07760000
C        2.08420000      -4.68010000      -2.14530000
C        0.93270000      -4.03140000      -2.26540000
H        0.43400000       1.79390000      -0.84680000
H       -0.87630000       1.64720000       0.35150000
H        0.79520000       1.73080000       0.89640000
H        0.86310000      -0.15040000      -1.87760000
H        0.77600000      -1.98440000      -3.08290000
H        3.96650000      -3.84570000      -2.86220000
H        3.73220000      -3.72380000      -1.10770000
H        2.22790000      -5.75100000      -2.08330000
H       -0.06540000      -4.44320000      -2.31420000
