17
Properties=species:S:1:pos:R:3 gdb_74406=T pbc="F F F"
C       -0.00500000       1.45560000       0.08720000
C       -0.04460000      -0.03120000       0.01540000
C       -0.00140000      -0.88510000      -1.02740000
C        0.04630000      -2.25160000      -0.37220000
C       -0.07460000      -3.53410000      -1.13850000
O       -0.87660000      -2.08020000       0.75700000
C       -0.02700000      -0.98780000       1.19580000
C        1.16160000      -1.92840000       0.72040000
O        2.22870000      -2.30210000       1.06720000
H        0.86970000       1.80020000       0.65260000
H        0.04180000       1.90100000      -0.90990000
H       -0.88870000       1.85360000       0.60030000
H        0.08410000      -0.67710000      -2.08480000
H        0.69930000      -3.58170000      -1.91030000
H        0.04590000      -4.39400000      -0.47530000
H       -1.05160000      -3.60190000      -1.62630000
H       -0.19570000      -0.64820000       2.21510000
