19
Properties=species:S:1:pos:R:3 gdb_47583=T pbc="F F F"
N        0.11290000       0.85550000       1.01490000
C        0.07400000      -0.12930000       0.22160000
O        1.20110000      -0.65890000      -0.33780000
C        1.04970000      -1.85460000      -1.11900000
C        0.16870000      -2.85750000      -0.38930000
N       -1.15490000      -2.27380000      -0.25740000
C       -1.90700000      -2.40000000       1.00960000
C       -2.30170000      -0.90410000       0.91080000
C       -1.22490000      -0.78890000      -0.19180000
H        1.07790000       1.16650000       1.14710000
H        0.62130000      -1.60990000      -2.10000000
H        2.06080000      -2.23740000      -1.26920000
H        0.13450000      -3.80160000      -0.94940000
H        0.62810000      -3.07180000       0.59210000
H       -2.71430000      -3.13910000       0.98320000
H       -1.26160000      -2.61740000       1.87510000
H       -3.31310000      -0.74200000       0.53680000
H       -2.12410000      -0.28460000       1.78750000
H       -1.54970000      -0.33530000      -1.13790000
