21
Properties=species:S:1:pos:R:3 gdb_83997=T pbc="F F F"
C       -0.05680000       1.49600000       0.01330000
C        0.01690000      -0.01760000      -0.05330000
C       -1.22070000      -0.68800000      -0.64140000
C       -1.42800000      -2.14590000      -0.19070000
C       -1.01590000      -2.31870000       1.26730000
O        0.37170000      -2.02430000       1.44140000
C        0.73060000      -0.71380000       1.09320000
C        1.40200000      -0.60640000      -0.25900000
O        1.58020000      -1.78940000      -0.97450000
H        0.86100000       1.92760000       0.42560000
H       -0.20070000       1.92210000      -0.98660000
H       -0.89120000       1.82600000       0.64330000
H       -2.09000000      -0.09960000      -0.31940000
H       -1.19450000      -0.62820000      -1.73550000
H       -2.47900000      -2.43030000      -0.31350000
H       -0.83220000      -2.82440000      -0.80770000
H       -1.61920000      -1.67170000       1.92290000
H       -1.13910000      -3.35240000       1.60220000
H        1.08780000      -0.13220000       1.94090000
H        2.22700000       0.09280000      -0.37920000
H        1.47980000      -2.50330000      -0.32790000
