17
Properties=species:S:1:pos:R:3 gdb_127429=T pbc="F F F"
C       -0.02670000       1.40080000      -0.06600000
N       -0.02290000      -0.04140000       0.00790000
N       -0.04130000      -0.79710000      -1.12760000
C        0.01900000      -2.06340000      -0.71690000
C       -0.00350000      -3.19620000      -1.69090000
C        0.10330000      -2.12660000       0.69280000
O        0.10580000      -3.20440000       1.55420000
C        0.07520000      -0.81230000       1.11120000
O        0.11010000      -0.27140000       2.34790000
H        0.98710000       1.80250000      -0.17600000
H       -0.62130000       1.69610000      -0.93160000
H       -0.47150000       1.80720000       0.84430000
H        0.93490000      -3.76440000      -1.67980000
H       -0.81010000      -3.90160000      -1.46300000
H       -0.15240000      -2.80920000      -2.70110000
H        0.90900000      -3.71700000       1.41290000
H        0.10590000      -1.00890000       2.97130000
