14
Properties=species:S:1:pos:R:3 gdb_132776=T pbc="F F F"
N       -0.05480000       1.35330000      -0.27400000
C       -0.02430000      -0.01310000      -0.11430000
C       -1.23210000      -0.71590000       0.06360000
N       -2.46380000      -0.04090000       0.14570000
C       -1.07580000      -2.08450000       0.20470000
F       -2.17690000      -2.81530000       0.40610000
N        0.07090000      -2.72950000       0.16400000
C        1.14000000      -1.95990000      -0.04180000
N        1.15730000      -0.63700000      -0.17810000
H        0.85240000       1.78960000      -0.19260000
H       -0.79510000       1.82710000       0.22550000
H       -3.23560000      -0.68860000       0.24470000
H       -2.62750000       0.55660000      -0.65860000
H        2.09930000      -2.46680000      -0.09500000
