19
Properties=species:S:1:pos:R:3 gdb_81254=T pbc="F F F"
O        0.00920000       1.43540000      -0.13380000
C        0.11070000       0.05450000      -0.04910000
C        0.01940000      -0.60630000       1.34030000
O       -1.42430000      -0.14940000       1.38610000
C       -1.21830000      -0.77860000       0.04090000
C       -2.08860000      -1.28920000      -1.06950000
C       -1.17770000      -2.47650000      -1.58440000
C       -0.02660000      -2.75110000      -0.52290000
C       -0.48420000      -1.93150000       0.68790000
H       -0.68810000       1.66790000       0.49770000
H        0.89150000      -0.27610000      -0.73440000
H        0.58940000      -0.43070000       2.25380000
H       -3.03980000      -1.66470000      -0.68010000
H       -2.30180000      -0.55790000      -1.85300000
H       -1.78590000      -3.37190000      -1.73320000
H       -0.74340000      -2.22840000      -2.55590000
H        0.05780000      -3.81600000      -0.29570000
H        0.94020000      -2.43680000      -0.92240000
H       -1.11960000      -2.48880000       1.37970000
