19
Properties=species:S:1:pos:R:3 gdb_119187=T pbc="F F F"
C        0.06580000       1.50890000      -0.12430000
C        0.09790000       0.01640000       0.07680000
O        1.36970000      -0.62990000       0.11710000
C        0.55390000      -0.67560000       1.31090000
C        1.10530000       0.05940000       2.51860000
C        2.31430000      -0.65010000       3.12320000
O        2.74420000       0.12880000       4.22990000
C       -0.02260000      -1.97400000       1.59510000
C       -0.51070000      -3.04190000       1.85410000
H        0.82830000       2.02220000       0.46320000
H        0.24200000       1.73970000      -1.18020000
H       -0.91790000       1.90760000       0.14530000
H       -0.64260000      -0.53010000      -0.51050000
H        1.40450000       1.07200000       2.24080000
H        0.32180000       0.14190000       3.28000000
H        2.03370000      -1.66800000       3.43150000
H        3.10110000      -0.73700000       2.35900000
H        3.51250000      -0.30050000       4.61700000
H       -0.93900000      -3.98860000       2.07410000
