19
Properties=species:S:1:pos:R:3 gdb_29509=T pbc="F F F"
C        0.02190000       1.53420000       0.01590000
C       -0.00080000       0.03650000       0.02650000
C       -0.01390000      -0.80240000      -1.07560000
N       -0.02850000      -2.11880000      -0.65610000
C       -0.03790000      -2.13150000       0.71350000
C       -0.01180000      -0.83680000       1.15030000
N       -0.02450000      -0.72570000       2.57090000
C       -0.24500000      -2.12960000       3.03100000
C        0.04050000      -3.11360000       1.83730000
H        0.96190000       1.93740000       0.41370000
H       -0.09490000       1.92350000      -0.99990000
H       -0.78500000       1.95080000       0.62970000
H       -0.03420000      -0.55900000      -2.12660000
H       -0.10760000      -2.91380000      -1.26430000
H        0.86070000      -0.37110000       2.92230000
H        0.36300000      -2.34580000       3.91300000
H       -1.29690000      -2.22890000       3.32030000
H       -0.70670000      -3.91440000       1.81540000
H        1.02690000      -3.59650000       1.91120000
