18
Properties=species:S:1:pos:R:3 gdb_126629=T pbc="F F F"
C       -0.00680000       1.49570000       0.10370000
C        0.01040000      -0.03370000       0.05360000
C        0.66950000      -0.55730000      -1.22740000
N        0.70910000      -2.00300000      -1.30030000
N        1.66950000      -2.74090000      -0.63990000
C        1.33090000      -3.95520000      -0.85830000
O        0.20310000      -4.10580000      -1.60640000
C       -0.23340000      -2.81080000      -1.88840000
N       -1.26010000      -2.45800000      -2.53880000
H        1.00810000       1.90720000       0.06800000
H       -0.56520000       1.91480000      -0.74040000
H       -0.47750000       1.85340000       1.02380000
H        0.55200000      -0.43550000       0.91780000
H       -1.01180000      -0.42520000       0.10500000
H        0.11500000      -0.22300000      -2.10900000
H        1.69890000      -0.19440000      -1.30960000
H        1.84080000      -4.84170000      -0.52020000
H       -1.77880000      -3.26080000      -2.88150000
