23
Properties=species:S:1:pos:R:3 gdb_106677=T pbc="F F F"
C       -0.12610000       1.52070000       0.12230000
C        0.10300000       0.01200000      -0.04790000
C        0.76170000      -0.59930000       1.14970000
C        0.09640000      -1.05820000       2.41650000
C        1.00400000      -2.00960000       1.64980000
C        0.56910000      -3.36120000       1.16180000
C        2.44750000      -1.54010000       1.87380000
C        3.51000000      -2.13530000       0.97150000
O        2.10450000      -0.18550000       1.44820000
H        0.82230000       2.03310000       0.30760000
H       -0.57850000       1.95260000      -0.77520000
H       -0.78830000       1.72360000       0.97000000
H       -0.85180000      -0.49840000      -0.22160000
H        0.72830000      -0.16920000      -0.93090000
H        0.40660000      -0.63700000       3.36980000
H       -0.96240000      -1.28990000       2.33950000
H       -0.46930000      -3.33530000       0.81560000
H        1.18620000      -3.71400000       0.32870000
H        0.62570000      -4.11180000       1.95980000
H        2.78500000      -1.54300000       2.91960000
H        3.17850000      -2.14570000      -0.07110000
H        4.42510000      -1.53870000       1.03360000
H        3.74870000      -3.16080000       1.27460000
