21
Properties=species:S:1:pos:R:3 gdb_112043=T pbc="F F F"
C       -0.01820000       1.42560000       0.04420000
O        0.20750000       0.04350000      -0.10470000
C        0.70650000      -0.58850000       1.06270000
C       -0.31140000      -0.88500000       2.14130000
C       -0.10610000      -2.08970000       2.67130000
C        1.05290000      -2.80340000       2.02220000
C        1.29280000      -1.99490000       0.72230000
C        0.56750000      -2.63670000      -0.46470000
O        2.69450000      -1.94520000       0.47750000
H        0.89730000       1.95570000       0.35120000
H       -0.33980000       1.80880000      -0.92760000
H       -0.80340000       1.64580000       0.78270000
H        1.52830000       0.02580000       1.47130000
H       -1.06470000      -0.17250000       2.45710000
H       -0.67030000      -2.51810000       3.49270000
H        1.95530000      -2.75660000       2.64520000
H        0.85750000      -3.86300000       1.82450000
H       -0.50190000      -2.74390000      -0.26260000
H        0.67150000      -2.02300000      -1.36320000
H        0.99580000      -3.62520000      -0.65290000
H        2.82260000      -1.50750000      -0.37130000
