14
Properties=species:S:1:pos:R:3 gdb_23647=T pbc="F F F"
C        0.00040000       1.49770000       0.03800000
C        0.01970000      -0.00580000      -0.02160000
C       -0.10920000      -0.70240000      -1.22190000
C       -0.08240000      -2.09630000      -1.20200000
C        0.07130000      -2.75720000       0.00710000
C        0.19030000      -1.95380000       1.13860000
F        0.33960000      -2.54990000       2.32050000
N        0.16900000      -0.64390000       1.15340000
H        0.93100000       1.87240000       0.47620000
H       -0.12400000       1.93980000      -0.95300000
H       -0.81530000       1.84180000       0.68180000
H       -0.22820000      -0.16270000      -2.15400000
H       -0.18090000      -2.66080000      -2.12330000
H        0.10010000      -3.83580000       0.09130000
