17
Properties=species:S:1:pos:R:3 gdb_2710=T pbc="F F F"
C       -0.08700000       1.52630000       0.03250000
C       -0.02810000       0.02080000      -0.16020000
O       -1.31260000      -0.51590000       0.09460000
C       -1.37130000      -1.91370000      -0.05590000
C       -2.80910000      -2.36090000       0.21020000
C       -2.92910000      -3.86400000       0.30770000
O       -3.67780000      -4.54140000      -0.34720000
H        0.89330000       1.97290000      -0.15830000
H       -0.81210000       1.97250000      -0.65380000
H       -0.38740000       1.77100000       1.05520000
H        0.28890000      -0.22720000      -1.18710000
H        0.71250000      -0.42970000       0.52230000
H       -1.06060000      -2.21080000      -1.07160000
H       -0.68040000      -2.40930000       0.64950000
H       -3.11350000      -1.93610000       1.17700000
H       -3.48910000      -1.99070000      -0.56020000
H       -2.25290000      -4.32950000       1.06390000
