16
Properties=species:S:1:pos:R:3 gdb_68725=T pbc="F F F"
C        0.00020000       1.52170000       0.03220000
C       -0.07520000       0.03350000       0.08870000
O        1.07370000      -0.74480000      -0.26000000
C        0.51710000      -0.93870000       1.06210000
C        1.34260000      -0.72680000       2.19870000
C        2.02470000      -0.57460000       3.17730000
C       -0.70550000      -1.83260000       0.91860000
N       -1.87480000      -1.00130000       1.30420000
C       -1.29270000      -0.87220000      -0.05630000
H        0.93720000       1.87090000       0.47250000
H       -0.04670000       1.87430000      -1.00400000
H       -0.83780000       1.95710000       0.58400000
H        2.62910000      -0.43460000       4.03910000
H       -0.74210000      -2.91390000       0.91990000
H       -2.70430000      -1.59250000       1.22850000
H       -1.86480000      -1.08540000      -0.95010000
