14
Properties=species:S:1:pos:R:3 gdb_125146=T pbc="F F F"
C       -0.04100000       1.54480000       0.06080000
C       -0.00560000       0.05480000       0.01760000
C        0.00250000      -0.78640000      -1.05540000
O        0.01720000      -2.07900000      -0.66760000
N        0.03230000      -2.11680000       0.72220000
C        0.00830000      -0.86130000       1.11950000
N       -0.07070000      -0.52550000       2.45550000
C       -0.01040000      -0.50650000      -2.44300000
N       -0.02070000      -0.23990000      -3.56950000
H        0.86590000       1.95560000       0.52100000
H       -0.12090000       1.96420000      -0.94450000
H       -0.89480000       1.89870000       0.64910000
H        0.12370000      -1.29940000       3.07660000
H        0.43780000       0.30770000       2.71410000
