21
Properties=species:S:1:pos:R:3 gdb_101115=T pbc="F F F"
C        0.15110000       1.45370000       0.23170000
C       -0.01770000      -0.06300000       0.08880000
C       -1.49870000      -0.46550000      -0.06810000
O       -2.29140000      -0.12850000       1.05890000
C        0.77170000      -0.61530000      -1.06560000
C        1.10740000      -2.08980000      -1.37640000
C        2.39100000      -1.59330000      -2.12960000
C        1.97370000      -0.15730000      -1.79070000
O        0.66470000       0.04090000      -2.34440000
H        1.19630000       1.71920000       0.41530000
H       -0.17210000       1.96590000      -0.67930000
H       -0.43160000       1.82880000       1.07840000
H        0.34830000      -0.54940000       1.00320000
H       -1.90000000      -0.02300000      -0.99230000
H       -1.57390000      -1.55330000      -0.16860000
H       -2.44430000       0.82050000       1.04250000
H        1.34470000      -2.67590000      -0.48490000
H        0.36110000      -2.61860000      -1.97350000
H        3.31410000      -1.90410000      -1.63460000
H        2.45580000      -1.81550000      -3.19720000
H        2.59060000       0.72580000      -1.66580000
