17
Properties=species:S:1:pos:R:3 gdb_46485=T pbc="F F F"
N       -0.03250000       1.24950000       0.34500000
C        0.00060000       0.03020000      -0.01230000
O        1.18720000      -0.62420000      -0.21610000
C        1.14810000      -1.80590000      -1.02190000
C        0.06370000      -2.76930000      -0.59570000
C        0.12830000      -4.15890000      -1.12330000
N        0.35460000      -3.91390000       0.30430000
C       -1.21930000      -2.07350000      -0.35070000
C       -1.23370000      -0.75530000      -0.13040000
H        0.91810000       1.62140000       0.39900000
H        0.98770000      -1.51620000      -2.07000000
H        2.14190000      -2.25560000      -0.93950000
H       -0.79080000      -4.68820000      -1.36070000
H        0.97330000      -4.41800000      -1.75820000
H        1.34970000      -3.93940000       0.51690000
H       -2.13170000      -2.66130000      -0.33920000
H       -2.14690000      -0.20070000       0.04560000
