23
Properties=species:S:1:pos:R:3 gdb_79466=T pbc="F F F"
C       -0.21330000       1.62400000       0.00150000
C        0.03400000       0.12080000       0.01250000
C        1.11900000      -0.54660000      -0.84360000
C        2.55590000      -0.31320000      -0.18980000
C        2.66400000      -1.85220000      -0.01460000
C        1.13870000      -1.76160000       0.13390000
C        0.76050000      -0.61880000       1.18900000
C        0.05490000      -0.92270000       2.49000000
C        2.12260000       0.10780000       1.23080000
H        0.71210000       2.20350000       0.06190000
H       -0.71910000       1.91890000      -0.92470000
H       -0.85580000       1.92910000       0.83580000
H       -0.91320000      -0.40100000      -0.18060000
H        1.06830000      -0.65220000      -1.92750000
H        3.33360000       0.26360000      -0.69000000
H        2.93360000      -2.36660000      -0.94220000
H        3.27840000      -2.23220000       0.80900000
H        0.45750000      -2.60890000       0.05120000
H        0.68110000      -1.53630000       3.14810000
H       -0.18930000      -0.00240000       3.03440000
H       -0.88180000      -1.46530000       2.32040000
H        2.79670000      -0.28580000       1.99880000
H        2.02850000       1.18500000       1.38620000
