17
Properties=species:S:1:pos:R:3 gdb_123428=T pbc="F F F"
C        0.06540000       1.28080000       0.66430000
C       -0.06270000      -0.09110000       0.03770000
C       -1.36470000      -0.63710000      -0.40120000
N       -0.36820000      -0.20740000      -1.40590000
C        1.37140000       1.93700000       0.32390000
C        2.13260000       2.91290000       0.92690000
N        3.23840000       3.15240000       0.16780000
N        3.21360000       2.37620000      -0.87690000
N        2.08710000       1.64220000      -0.79200000
H       -0.77260000       1.90870000       0.32900000
H       -0.02380000       1.21030000       1.75430000
H        0.69660000      -0.80160000       0.35940000
H       -1.54510000      -1.70690000      -0.36250000
H       -2.25070000      -0.02260000      -0.26470000
H       -0.64970000       0.70320000      -1.76610000
H        1.95130000       3.44510000       1.84700000
H        1.88340000       0.94520000      -1.49400000
