21
Properties=species:S:1:pos:R:3 gdb_119734=T pbc="F F F"
C        0.76910000       1.34090000      -0.02090000
O        0.96490000      -0.03730000      -0.22890000
C       -0.05330000      -0.62660000      -1.00740000
C        0.23140000      -2.10160000      -1.14480000
C        0.57970000      -2.94920000       0.10100000
C        1.72600000      -3.63870000      -0.70540000
C        1.39990000      -2.75770000      -1.94160000
C        0.28160000      -3.30830000      -2.83890000
O       -0.75090000      -2.73950000      -1.99490000
H        0.75300000       1.89900000      -0.97030000
H       -0.17440000       1.54300000       0.51030000
H        1.60200000       1.70230000       0.58720000
H       -1.04290000      -0.49200000      -0.53510000
H       -0.10530000      -0.16400000      -2.00700000
H        0.94060000      -2.34500000       0.93550000
H       -0.23860000      -3.58990000       0.43690000
H        2.71850000      -3.45120000      -0.29080000
H        1.61860000      -4.71510000      -0.86690000
H        2.21120000      -2.20310000      -2.41110000
H        0.24490000      -2.88150000      -3.84950000
H        0.20330000      -4.40070000      -2.91110000
