18
Properties=species:S:1:pos:R:3 gdb_124640=T pbc="F F F"
C        0.00460000       1.53750000       0.07050000
C        0.01600000       0.00520000      -0.02580000
C        0.76220000      -0.49180000      -1.26410000
N        0.60130000      -0.62440000       1.15910000
C       -0.04330000      -0.65270000       2.35300000
N       -1.31810000      -0.35570000       2.51620000
O       -1.51580000      -0.59930000       3.89950000
C       -0.34160000      -0.99060000       4.37610000
N        0.61410000      -1.05010000       3.50720000
H        1.02640000       1.93200000       0.11200000
H       -0.49210000       1.97400000      -0.80190000
H       -0.53190000       1.86160000       0.96560000
H       -1.02090000      -0.34590000      -0.07050000
H        1.81350000      -0.17850000      -1.23850000
H        0.73190000      -1.58270000      -1.32950000
H        0.31730000      -0.07510000      -2.17170000
H        1.60750000      -0.63540000       1.23280000
H       -0.29000000      -1.22120000       5.43080000
