18
Properties=species:S:1:pos:R:3 gdb_100583=T pbc="F F F"
C       -0.01930000       1.56630000      -0.10450000
C       -0.02850000       0.02450000      -0.10260000
C       -1.43470000      -0.54640000       0.08480000
O       -1.89420000      -0.11250000       1.35500000
C        0.58300000      -0.51440000      -1.37480000
O        0.00880000      -1.11740000      -2.24170000
O        1.92370000      -0.20770000      -1.42120000
C        2.64040000      -0.59670000      -2.52550000
N        3.86360000      -0.30760000      -2.56400000
H        0.99990000       1.95220000      -0.16920000
H       -0.59360000       1.95640000      -0.95190000
H       -0.48180000       1.92570000       0.81620000
H        0.59910000      -0.31680000       0.72970000
H       -2.08520000      -0.19190000      -0.72790000
H       -1.40050000      -1.64320000       0.02070000
H       -2.79760000      -0.42030000       1.46870000
H        2.03480000      -1.12930000      -3.25890000
H        4.27150000      -0.65350000      -3.43140000
