22
Properties=species:S:1:pos:R:3 gdb_13140=T pbc="F F F"
C       -0.36800000       1.36900000      -0.19780000
C        0.23650000      -0.02450000      -0.15730000
O        0.19580000      -0.49400000       1.17660000
C        0.71410000      -1.78580000       1.33870000
C        2.25360000      -2.00220000       1.28580000
C        2.10650000      -2.93580000       2.51980000
C        0.70080000      -2.31940000       2.79670000
C        0.69580000      -1.23130000       3.86760000
H        0.19730000       2.05060000       0.44420000
H       -0.35510000       1.76230000      -1.21880000
H       -1.40330000       1.34820000       0.15440000
H       -0.32440000      -0.71010000      -0.81550000
H        1.27490000      -0.00430000      -0.52580000
H        0.20360000      -2.48630000       0.65760000
H        2.68390000      -2.42330000       0.37420000
H        2.78190000      -1.07700000       1.53280000
H        2.05360000      -3.99080000       2.23840000
H        2.84890000      -2.82690000       3.31440000
H       -0.09430000      -3.04130000       3.00640000
H        1.49520000      -0.50120000       3.70760000
H       -0.25070000      -0.68380000       3.86690000
H        0.83800000      -1.67530000       4.85880000
