17
Properties=species:S:1:pos:R:3 gdb_35809=T pbc="F F F"
C       -0.35080000      -1.14040000       0.17720000
C       -0.16930000       0.03940000       0.03360000
C        0.02490000       1.48140000      -0.14520000
O       -0.68500000       2.23580000       0.84010000
C        0.16360000       2.40110000       1.97370000
C        1.58660000       2.52740000       1.40780000
O        2.49930000       1.48560000       1.81550000
C        2.59260000       0.98460000       0.46230000
C        1.50220000       1.95900000      -0.02530000
H       -0.51960000      -2.18140000       0.30420000
H       -0.40060000       1.77240000      -1.11100000
H       -0.18590000       3.28790000       2.50770000
H        0.12300000       1.53050000       2.64260000
H        2.02590000       3.52160000       1.53950000
H        3.58230000       1.17870000       0.03160000
H        2.36340000      -0.08290000       0.39610000
H        1.77090000       2.61490000      -0.85190000
