20
Properties=species:S:1:pos:R:3 gdb_98236=T pbc="F F F"
C       -0.64440000       1.42380000       0.26610000
N       -1.02420000       0.03380000       0.41960000
C       -0.64890000      -0.92200000      -0.46420000
O        0.06180000      -0.72690000      -1.43610000
C       -1.11620000      -2.35670000      -0.13430000
C       -0.13410000      -2.98940000       0.88200000
C       -2.53640000      -2.48160000       0.41100000
C       -3.41240000      -3.53720000      -0.22580000
O       -2.93930000      -1.78860000       1.32520000
H       -0.15250000       1.79790000       1.17040000
H        0.04910000       1.48790000      -0.57300000
H       -1.51450000       2.05740000       0.05760000
H       -1.68440000      -0.23990000       1.13600000
H       -1.03710000      -2.90040000      -1.07840000
H        0.88710000      -2.90970000       0.50130000
H       -0.19500000      -2.47530000       1.84440000
H       -0.35970000      -4.04840000       1.04190000
H       -2.90310000      -4.50730000      -0.23280000
H       -4.36100000      -3.61400000       0.30640000
H       -3.59610000      -3.27300000      -1.27410000
