15
Properties=species:S:1:pos:R:3 gdb_28924=T pbc="F F F"
N        0.10110000       1.36600000      -0.16830000
C        0.04770000      -0.02980000      -0.06700000
N       -1.14600000      -0.61980000      -0.00690000
C       -1.16680000      -1.95830000       0.03850000
C       -0.03820000      -2.76360000       0.03460000
C        1.20770000      -2.13770000      -0.05140000
O        2.34770000      -2.86100000      -0.09430000
C        1.24520000      -0.74840000      -0.10770000
O        2.47860000      -0.13150000      -0.19690000
H        0.77410000       1.78990000       0.45940000
H       -0.81980000       1.76650000      -0.03790000
H       -2.15280000      -2.41270000       0.08950000
H       -0.10350000      -3.84330000       0.08060000
H        3.07820000      -2.23450000      -0.19390000
H        2.39510000       0.60890000      -0.81190000
