17
Properties=species:S:1:pos:R:3 gdb_80416=T pbc="F F F"
O        0.01290000       1.37660000       0.09680000
C       -0.03170000      -0.03140000       0.00950000
C       -1.45340000      -0.56880000      -0.23470000
C       -1.15850000      -2.02310000      -0.70500000
C       -0.56080000      -1.28980000      -1.95620000
O       -0.29350000      -1.89730000      -3.15910000
C       -1.69800000      -0.21940000      -1.72900000
C        0.58160000      -0.55280000      -1.30630000
O        1.67970000      -0.36470000      -1.77000000
H        0.91420000       1.64990000      -0.11230000
H        0.44090000      -0.50620000       0.88380000
H       -2.19710000      -0.35850000       0.52960000
H       -0.49670000      -2.65230000      -0.10250000
H       -2.06800000      -2.56610000      -0.96800000
H        0.62140000      -1.66990000      -3.38540000
H       -2.65390000      -0.59290000      -2.10060000
H       -1.52330000       0.80790000      -2.05240000
