21
Properties=species:S:1:pos:R:3 gdb_71122=T pbc="F F F"
C       -0.03900000       1.50210000       0.04770000
C        0.02320000      -0.02070000       0.00170000
C        0.83480000      -0.58990000      -1.18920000
C        1.04930000      -2.03910000      -0.78320000
C        0.97660000      -2.08830000       0.74910000
C        0.72040000      -0.66760000       1.22510000
C       -0.13840000      -2.64770000      -0.09040000
O       -1.40120000      -2.03720000      -0.13070000
C       -1.39440000      -0.61130000      -0.08450000
H        0.96700000       1.93020000       0.10920000
H       -0.52150000       1.90880000      -0.84810000
H       -0.60520000       1.85200000       0.91820000
H        0.29680000      -0.48000000      -2.13810000
H        1.79540000      -0.06960000      -1.28800000
H        1.72890000      -2.66750000      -1.34830000
H        1.60160000      -2.75380000       1.33440000
H        1.66570000      -0.15760000       1.44730000
H        0.09480000      -0.61700000       2.12390000
H       -0.26290000      -3.72400000      -0.13090000
H       -1.98600000      -0.29340000       0.78670000
H       -1.90210000      -0.23630000      -0.98540000
