17
Properties=species:S:1:pos:R:3 gdb_44045=T pbc="F F F"
N        0.06180000       1.16940000       0.57460000
C        0.08060000      -0.01400000       0.13680000
N        1.04260000      -0.91640000      -0.34930000
C        0.09940000      -1.98390000      -0.62560000
C       -0.21560000      -3.05340000       0.46960000
C       -1.38160000      -2.13270000       1.00120000
C       -0.99470000      -1.09130000      -0.08210000
O       -1.72730000      -1.06990000      -1.32350000
C       -0.72050000      -1.93460000      -1.93990000
H        0.98760000       1.60120000       0.55620000
H        2.02470000      -0.80190000      -0.55570000
H       -0.52940000      -4.02770000       0.08860000
H        0.60490000      -3.19740000       1.17370000
H       -2.38200000      -2.53820000       0.84260000
H       -1.29230000      -1.79200000       2.03380000
H       -0.22620000      -1.44810000      -2.78720000
H       -1.15740000      -2.88690000      -2.26110000
