16
Properties=species:S:1:pos:R:3 gdb_74120=T pbc="F F F"
N        0.01370000       1.29850000      -0.25570000
C       -0.06520000      -0.03720000      -0.02810000
C       -1.18100000      -0.80790000       0.08070000
C       -0.83750000      -2.21140000       0.27270000
O       -1.57510000      -3.16250000       0.42250000
C        0.70450000      -2.29560000       0.23500000
O        1.20110000      -2.67510000      -1.07810000
C        1.76590000      -1.37060000      -1.29300000
C        1.19980000      -0.85150000       0.05580000
H        0.88400000       1.77730000      -0.09650000
H       -0.81760000       1.86370000      -0.19890000
H       -2.20320000      -0.45440000       0.03200000
H        1.11850000      -2.92410000       1.02840000
H        2.86170000      -1.40590000      -1.33540000
H        1.38070000      -0.88720000      -2.19820000
H        1.93080000      -0.44530000       0.75890000
