24
Properties=species:S:1:pos:R:3 gdb_59466=T pbc="F F F"
C       -0.41710000       1.37930000       0.13830000
C        0.14410000      -0.02010000      -0.15180000
C        1.05590000      -0.00510000      -1.38740000
C        0.88200000      -0.56770000       1.05810000
C        0.12610000      -1.16200000       2.22540000
C        0.96750000      -2.04840000       1.34380000
N        0.27740000      -2.96360000       0.47550000
C        1.10490000      -3.89280000      -0.28800000
C        0.29530000      -4.36920000       0.86800000
H        0.39000000       2.09040000       0.35360000
H       -0.97680000       1.76530000      -0.72040000
H       -1.08790000       1.36720000       1.00310000
H       -0.69350000      -0.69560000      -0.35870000
H        1.92610000       0.64320000      -1.22590000
H        1.42410000      -1.00900000      -1.61890000
H        0.52290000       0.37180000      -2.26690000
H        1.77700000      -0.00390000       1.31750000
H        0.45960000      -0.96120000       3.23760000
H       -0.94840000      -1.26290000       2.11230000
H        1.90910000      -2.41320000       1.76600000
H        0.78340000      -4.08830000      -1.30710000
H        2.18410000      -3.84230000      -0.15220000
H        0.83350000      -4.63610000       1.77600000
H       -0.62870000      -4.91770000       0.70810000
