16
Properties=species:S:1:pos:R:3 gdb_48180=T pbc="F F F"
O       -0.92270000       1.54270000      -0.07810000
C        0.10710000       1.29710000       0.49290000
C        1.39930000       2.09570000       0.27280000
O        2.37820000       1.80040000       0.91870000
C        1.37530000       3.19770000      -0.77970000
N        2.56340000       4.02140000      -0.84290000
C        2.66580000       4.98280000       0.26510000
C        3.91500000       5.73180000       0.19700000
C        4.95450000       6.33190000       0.15280000
H        0.22040000       0.47910000       1.23550000
H        1.20570000       2.70330000      -1.74780000
H        0.48450000       3.81800000      -0.62440000
H        3.38770000       3.42830000      -0.82930000
H        1.81890000       5.67780000       0.18390000
H        2.59120000       4.50930000       1.25860000
H        5.86900000       6.87000000       0.11100000
