16
Properties=species:S:1:pos:R:3 gdb_92670=T pbc="F F F"
C       -0.03160000       1.40790000       0.00890000
N       -0.01840000      -0.03400000      -0.00120000
C       -1.20530000      -0.85310000       0.00370000
C       -0.65270000      -2.24880000      -0.00660000
C        0.68950000      -2.22000000      -0.01530000
C        1.59880000      -3.29890000      -0.02640000
C        2.39050000      -4.20550000      -0.03590000
C        1.14180000      -0.77700000      -0.01140000
O        2.27320000      -0.34380000      -0.01590000
H        1.00790000       1.74130000       0.00190000
H       -0.54350000       1.81140000      -0.87370000
H       -0.52770000       1.79950000       0.90580000
H       -1.82910000      -0.66840000       0.89260000
H       -1.84200000      -0.66040000      -0.87430000
H       -1.28070000      -3.12870000      -0.00660000
H        3.09450000      -5.00010000      -0.04440000
