19
Properties=species:S:1:pos:R:3 gdb_1268=T pbc="F F F"
C       -0.03740000       1.56500000       0.06500000
C        0.01100000       0.02730000       0.00270000
C        0.67730000      -0.47750000      -1.19430000
C        1.23820000      -0.86600000      -2.18800000
C        1.89710000      -1.35860000      -3.39910000
C        1.96930000      -2.89870000      -3.40500000
C        1.20010000      -0.82760000      -4.66750000
H        0.97190000       1.98550000       0.05920000
H       -0.57560000       1.97140000      -0.79570000
H       -0.54410000       1.89580000       0.97670000
H        0.52170000      -0.35760000       0.89520000
H       -1.01090000      -0.37150000       0.04850000
H        2.92840000      -0.97740000      -3.40200000
H        2.49060000      -3.27120000      -2.51930000
H        0.96380000      -3.33080000      -3.41220000
H        2.50130000      -3.25150000      -4.29460000
H        1.17450000       0.26530000      -4.67370000
H        1.72970000      -1.16700000      -5.56380000
H        0.16880000      -1.19040000      -4.72010000
