18
Properties=species:S:1:pos:R:3 gdb_72066=T pbc="F F F"
C       -0.36360000       1.37090000       0.09410000
C       -0.05630000      -0.08750000      -0.01320000
C        0.87700000      -0.81040000      -0.99320000
C        0.18980000      -2.12030000      -0.52800000
C        0.57330000      -2.15980000       0.95820000
N       -0.24440000      -0.92050000       1.20030000
C       -1.03070000      -1.24710000      -0.04920000
C       -2.49110000      -1.24280000      -0.16150000
O       -3.21580000      -0.48860000       0.44690000
H        0.46860000       1.90580000       0.56500000
H       -0.53440000       1.80690000      -0.89510000
H       -1.25950000       1.51680000       0.70170000
H        0.62220000      -0.54920000      -2.02330000
H        1.95970000      -0.72680000      -0.84550000
H        0.16670000      -3.00640000      -1.15880000
H        0.11880000      -2.98280000       1.51410000
H        1.63340000      -2.06670000       1.22020000
H       -2.90150000      -1.97750000      -0.88980000
