18
Properties=species:S:1:pos:R:3 gdb_71550=T pbc="F F F"
C       -0.03530000       1.48450000      -0.02930000
C       -0.02760000      -0.01250000      -0.09820000
C        0.57660000      -0.93540000      -1.16490000
C        0.07420000      -1.85580000      -0.05540000
N        0.57920000      -0.88870000       1.04490000
C       -0.78820000      -0.95940000       1.72380000
C       -1.20810000      -1.01240000       0.26350000
C       -2.55880000      -1.10100000      -0.35030000
O       -3.58760000      -1.09200000       0.28220000
H        0.99160000       1.86390000      -0.04470000
H       -0.57050000       1.90880000      -0.88500000
H       -0.51810000       1.84160000       0.88560000
H        0.07280000      -0.98500000      -2.13290000
H        1.66300000      -0.87730000      -1.27660000
H        0.17940000      -2.93450000       0.07030000
H       -0.92590000      -1.86260000       2.32480000
H       -1.04070000      -0.07040000       2.30750000
H       -2.57010000      -1.17190000      -1.46350000
