20
Properties=species:S:1:pos:R:3 gdb_32597=T pbc="F F F"
C       -0.00120000       1.56450000       0.10850000
C       -0.02960000       0.04090000      -0.05330000
N       -1.36970000      -0.51740000      -0.02910000
C       -2.05850000      -0.81690000       1.13570000
C       -3.32070000      -1.22310000       0.77770000
O       -4.28170000      -1.61700000       1.66690000
C       -3.41050000      -1.16370000      -0.63900000
C       -2.18950000      -0.71980000      -1.11210000
C       -1.75160000      -0.48670000      -2.52160000
H        1.03120000       1.92880000       0.10730000
H       -0.54000000       2.05590000      -0.70690000
H       -0.47130000       1.86090000       1.05050000
H        0.44790000      -0.24840000      -0.99390000
H        0.54480000      -0.43250000       0.75000000
H       -1.59440000      -0.72800000       2.10360000
H       -5.06900000      -1.85570000       1.17010000
H       -4.26240000      -1.42990000      -1.24850000
H       -1.46940000       0.55620000      -2.71400000
H       -0.89470000      -1.11110000      -2.80530000
H       -2.57180000      -0.73280000      -3.20000000
