14
Properties=species:S:1:pos:R:3 gdb_2252=T pbc="F F F"
C        0.01150000       1.55440000       0.04530000
C       -0.02820000       0.05970000      -0.04150000
C       -0.85940000      -0.82010000       0.83720000
N        0.58880000      -0.91820000       0.98020000
C        1.01550000      -1.82880000      -0.14190000
C        0.51620000      -0.78240000      -1.15960000
O        0.71740000      -0.57860000      -2.32240000
H        0.96950000       1.94350000      -0.31160000
H       -0.78050000       1.99140000      -0.57180000
H       -0.13650000       1.88550000       1.07680000
H       -1.35260000      -0.32360000       1.66820000
H       -1.41190000      -1.65900000       0.41770000
H        2.10330000      -1.93080000      -0.17840000
H        0.55150000      -2.81900000      -0.12290000
