15
Properties=species:S:1:pos:R:3 gdb_48757=T pbc="F F F"
N       -0.09970000       1.16690000       0.56570000
C       -0.04410000       0.04250000       0.00060000
N       -1.12820000      -0.74430000      -0.36280000
C       -0.69580000      -2.02100000      -0.83390000
C        0.05120000      -2.00470000      -2.16990000
C        0.82310000      -1.88160000      -0.89980000
O        1.11720000      -0.60180000      -0.40770000
C       -1.40700000      -3.21560000      -0.34620000
O       -2.34110000      -3.16190000       0.41720000
H        0.83310000       1.53820000       0.72610000
H       -1.95030000      -0.72190000       0.22280000
H        0.13690000      -2.95030000      -2.69590000
H       -0.09480000      -1.12580000      -2.78720000
H        1.52040000      -2.64330000      -0.57220000
H       -1.02710000      -4.17910000      -0.74890000
