21
Properties=species:S:1:pos:R:3 gdb_113895=T pbc="F F F"
C       -0.65280000       1.22460000       0.12940000
C        0.39680000       0.12900000      -0.09210000
C        0.74890000      -0.58320000       1.19390000
N       -0.16850000      -1.64490000       1.65300000
C        1.22570000      -1.99130000       1.29750000
C        1.43550000      -2.92210000       0.11720000
C        0.95530000      -4.35620000       0.37990000
N       -0.36720000      -4.43620000       0.70470000
O        1.68070000      -5.32530000       0.26860000
H       -0.29200000       1.98600000       0.83000000
H       -0.90270000       1.72820000      -0.80900000
H       -1.57240000       0.79790000       0.54160000
H        0.01790000      -0.59270000      -0.82180000
H        1.30990000       0.56410000      -0.51820000
H        1.12400000       0.08460000       1.97030000
H       -0.28180000      -1.61700000       2.66200000
H        1.89200000      -2.19910000       2.13340000
H        0.90690000      -2.54410000      -0.76290000
H        2.49820000      -2.98200000      -0.12690000
H       -0.87130000      -3.59430000       0.94710000
H       -0.73140000      -5.33610000       0.97240000
