14
Properties=species:S:1:pos:R:3 gdb_3669=T pbc="F F F"
C        0.04750000       1.50110000      -0.01770000
C       -0.08790000       0.02050000       0.03610000
C       -1.11790000      -0.83680000      -0.19150000
C       -0.55650000      -2.12740000       0.03980000
C       -1.21760000      -3.46480000      -0.05820000
N        0.70860000      -2.04170000       0.37820000
O        1.01030000      -0.67810000       0.37690000
H        0.80990000       1.79860000      -0.74500000
H       -0.90220000       1.95700000      -0.30350000
H        0.34810000       1.90270000       0.95560000
H       -2.12700000      -0.59220000      -0.48020000
H       -1.60310000      -3.63840000      -1.06830000
H       -0.50350000      -4.25420000       0.18370000
H       -2.06470000      -3.53490000       0.63200000
