25
Properties=species:S:1:pos:R:3 gdb_101823=T pbc="F F F"
C       -0.63460000       1.37570000       0.66440000
C       -0.75940000      -0.14170000       0.51130000
C       -1.47490000      -0.55890000      -0.77480000
O       -0.79610000      -0.10950000      -1.94460000
C       -1.69580000      -2.07230000      -0.86410000
O       -2.51910000      -2.47600000       0.20670000
C       -2.67190000      -3.88250000       0.37260000
C       -3.23780000      -4.09040000       1.77320000
C       -3.57010000      -4.49400000      -0.70670000
H       -0.06880000       1.63990000       1.56290000
H       -0.12980000       1.81330000      -0.20140000
H       -1.62210000       1.84390000       0.74220000
H        0.24000000      -0.60440000       0.51670000
H       -1.30200000      -0.57560000       1.35720000
H       -2.45740000      -0.07280000      -0.81410000
H        0.10710000      -0.44390000      -1.90290000
H       -2.14490000      -2.29940000      -1.84160000
H       -0.72010000      -2.59240000      -0.81960000
H       -1.67520000      -4.35310000       0.31380000
H       -4.22080000      -3.61640000       1.85850000
H       -3.34800000      -5.15660000       1.99190000
H       -2.57770000      -3.64570000       2.52250000
H       -3.15420000      -4.35620000      -1.70860000
H       -3.68500000      -5.57000000      -0.54110000
H       -4.56220000      -4.03180000      -0.67940000
