13
Properties=species:S:1:pos:R:3 gdb_25298=T pbc="F F F"
O       -0.01210000      -0.00150000       0.00160000
C       -0.00730000       1.19950000       0.00880000
C        1.31690000       1.99000000      -0.00070000
O        2.39610000       1.43120000      -0.01560000
C        1.20180000       3.44520000       0.00920000
N        0.09410000       4.17900000       0.02540000
C        0.51440000       5.47220000       0.02850000
C        1.89730000       5.53170000       0.01410000
N        2.31540000       4.23800000       0.00190000
H       -0.92910000       1.81030000       0.02230000
H       -0.18160000       6.29700000       0.04090000
H        2.58550000       6.36090000       0.01170000
H        3.25790000       3.87910000      -0.01030000
