16
Properties=species:S:1:pos:R:3 gdb_29597=T pbc="F F F"
O       -0.50740000       1.21970000       0.19710000
C       -0.19060000      -0.10100000       0.08020000
C        0.01770000      -0.75560000      -1.11150000
N        0.34740000      -2.05900000      -0.80370000
C        0.33730000      -2.23950000       0.54970000
C        0.01490000      -1.03630000       1.14140000
C       -0.05920000      -0.74220000       2.61800000
C       -1.20730000       0.09260000       2.98090000
C       -2.13950000       0.80780000       3.24170000
H       -0.94990000       1.34710000       1.04700000
H       -0.04420000      -0.40380000      -2.12690000
H        0.54640000      -2.77370000      -1.47950000
H        0.56270000      -3.19710000       0.99160000
H       -0.10690000      -1.68250000       3.18020000
H        0.85360000      -0.23370000       2.96140000
H       -2.97260000       1.41560000       3.49600000
