12
Properties=species:S:1:pos:R:3 gdb_23783=T pbc="F F F"
C       -0.01250000       1.47690000       0.02080000
C       -0.00830000      -0.02240000       0.00120000
N        0.14000000      -0.63330000      -1.19390000
C        0.13890000      -1.95000000      -1.17330000
C       -0.01120000      -2.61280000       0.04900000
F       -0.01420000      -3.93470000       0.08500000
N       -0.15270000      -1.98460000       1.18770000
N       -0.15210000      -0.64940000       1.17030000
H        0.92500000       1.86280000      -0.39120000
H       -0.82150000       1.86080000      -0.60830000
H       -0.13970000       1.83870000       1.04080000
H        0.25470000      -2.49720000      -2.10540000
