20
Properties=species:S:1:pos:R:3 gdb_5876=T pbc="F F F"
C       -0.09550000       1.54440000      -0.04260000
C        0.01850000       0.01620000       0.03350000
C        0.58940000      -0.41300000       1.38760000
O       -1.28780000      -0.57080000      -0.02560000
C        0.87750000      -0.50050000      -1.14550000
C        0.98050000      -2.03230000      -1.22400000
C        1.47560000      -2.49160000      -2.57330000
O        2.42510000      -3.20730000      -2.76210000
H        0.88420000       2.02350000       0.05020000
H       -0.52650000       1.85670000      -1.00190000
H       -0.74020000       1.91540000       0.75910000
H       -0.02100000      -0.00370000       2.19710000
H        0.58740000      -1.50120000       1.48420000
H        1.61560000      -0.05390000       1.50880000
H       -1.74540000      -0.19980000      -0.78810000
H        0.42930000      -0.12380000      -2.07680000
H        1.87910000      -0.05810000      -1.08850000
H        1.63670000      -2.44690000      -0.45530000
H       -0.02890000      -2.44200000      -1.07810000
H        0.87460000      -2.10420000      -3.43210000
