19
Properties=species:S:1:pos:R:3 gdb_74906=T pbc="F F F"
C       -0.03920000       1.57170000      -0.00040000
C       -0.01900000       0.06960000      -0.01370000
C       -1.12720000      -0.67420000      -0.08650000
C       -1.07820000      -2.16250000      -0.13400000
O       -1.47190000      -2.80420000      -1.35870000
C       -0.08730000      -2.83030000      -0.99680000
C        0.81710000      -1.97060000      -1.86610000
O        1.78930000      -1.22390000      -1.14980000
C        1.34570000      -0.60690000       0.05860000
H        0.54010000       1.97180000      -0.84230000
H       -1.05650000       1.96670000      -0.06390000
H        0.42590000       1.96660000       0.91190000
H       -2.10970000      -0.20800000      -0.12150000
H       -1.43530000      -2.69300000       0.75090000
H        0.28500000      -3.81070000      -0.70120000
H        1.38840000      -2.58940000      -2.56500000
H        0.16300000      -1.31290000      -2.45210000
H        2.12030000       0.12830000       0.29470000
H        1.34090000      -1.34640000       0.87220000
