20
Properties=species:S:1:pos:R:3 gdb_26091=T pbc="F F F"
C        0.14500000       1.54050000       0.15290000
C        0.00310000       0.02070000      -0.02610000
C        0.61030000      -0.71500000       1.18980000
C       -1.48830000      -0.35940000      -0.16670000
C        0.73690000      -0.39790000      -1.27130000
N        1.40410000       0.32600000      -2.11490000
C        1.86830000      -0.57330000      -3.06840000
C        1.44880000      -1.81570000      -2.74390000
O        0.72000000      -1.72320000      -1.59140000
H        1.19430000       1.83120000       0.24610000
H       -0.27160000       2.07980000      -0.70130000
H       -0.38600000       1.85500000       1.05710000
H        0.07480000      -0.43360000       2.10230000
H        0.53940000      -1.79960000       1.07200000
H        1.66490000      -0.45360000       1.32040000
H       -1.94730000       0.15800000      -1.01490000
H       -1.61010000      -1.43550000      -0.31670000
H       -2.03340000      -0.07600000       0.73950000
H        2.46490000      -0.25460000      -3.90830000
H        1.55720000      -2.79820000      -3.16960000
