17
Properties=species:S:1:pos:R:3 gdb_24051=T pbc="F F F"
C        0.00820000      -1.23640000       0.09840000
C       -0.02230000      -0.03480000       0.11320000
C       -0.01460000       1.42190000       0.12340000
C        1.39770000       2.01370000      -0.13850000
C        1.42330000       3.50560000      -0.12200000
C        1.50160000       4.44300000      -1.12170000
N        1.46250000       5.72180000      -0.61390000
C        1.35990000       5.57100000       0.68480000
N        1.32840000       4.25320000       1.03850000
H        0.01810000      -2.29800000       0.08580000
H       -0.70590000       1.80760000      -0.63510000
H       -0.39170000       1.78520000       1.08790000
H        2.09380000       1.60070000       0.60170000
H        1.74670000       1.66850000      -1.11540000
H        1.58900000       4.26180000      -2.18280000
H        1.30710000       6.36430000       1.41570000
H        1.27640000       3.88860000       1.97530000
