22
Properties=species:S:1:pos:R:3 gdb_100128=T pbc="F F F"
C       -0.06690000       1.57810000       0.09880000
C        0.01600000       0.04040000       0.06680000
C        0.70270000      -0.48140000       1.34290000
C       -1.41170000      -0.53570000      -0.00350000
O       -2.13990000      -0.11710000       1.14050000
C        0.74340000      -0.45570000      -1.20470000
C        2.20860000       0.00920000      -1.34270000
C        2.82600000      -0.49880000      -2.56600000
N        3.29830000      -0.90910000      -3.53770000
H        0.91630000       2.03650000       0.24380000
H       -0.48870000       1.97080000      -0.83360000
H       -0.71030000       1.90130000       0.91990000
H        0.09290000      -0.24810000       2.21830000
H        0.83410000      -1.56900000       1.30460000
H        1.68760000      -0.02740000       1.49070000
H       -1.89790000      -0.18560000      -0.92840000
H       -1.35610000      -1.63500000      -0.05320000
H       -3.02660000      -0.48380000       1.08630000
H        0.72890000      -1.55180000      -1.22590000
H        0.19300000      -0.11970000      -2.09130000
H        2.27160000       1.10230000      -1.35760000
H        2.80800000      -0.33080000      -0.49180000
