18
Properties=species:S:1:pos:R:3 gdb_102976=T pbc="F F F"
O       -0.08200000       1.42430000      -0.13400000
C       -0.05890000       0.02240000      -0.00900000
C       -1.46830000      -0.59370000      -0.05710000
C       -1.42980000      -2.12350000      -0.08470000
O       -2.75950000      -2.59210000      -0.30790000
C       -2.92330000      -3.93220000      -0.35420000
N       -4.07620000      -4.41620000      -0.51000000
C       -2.34030000      -0.09470000       1.08400000
O       -2.05760000       0.84990000       1.78530000
H       -0.56760000       1.74580000       0.63740000
H        0.53370000      -0.36110000      -0.84690000
H        0.44280000      -0.29650000       0.91960000
H       -1.96410000      -0.26520000      -0.98270000
H       -0.76620000      -2.46280000      -0.89100000
H       -1.04270000      -2.52310000       0.86320000
H       -1.98370000      -4.49240000      -0.24970000
H       -4.03010000      -5.43270000      -0.53080000
H       -3.28190000      -0.65660000       1.24300000
