21
Properties=species:S:1:pos:R:3 gdb_95808=T pbc="F F F"
C        0.05210000       1.53150000      -0.05220000
C        0.05600000       0.01110000       0.00470000
O        0.68360000      -0.45210000      -1.18370000
C        0.71030000      -1.86010000      -1.28830000
C        1.48710000      -2.48990000      -0.12780000
C        0.85510000      -2.06320000       1.19720000
O        1.62860000      -2.45050000       2.33260000
C        0.74980000      -0.53250000       1.26500000
O        2.03840000       0.03960000       1.37470000
H        1.07740000       1.90590000      -0.04740000
H       -0.44720000       1.86910000      -0.96380000
H       -0.47550000       1.94550000       0.81220000
H       -0.98480000      -0.36200000       0.02970000
H       -0.31840000      -2.26280000      -1.31540000
H        1.18310000      -2.09100000      -2.24680000
H        1.48870000      -3.58350000      -0.22300000
H        2.52290000      -2.13760000      -0.15570000
H       -0.15980000      -2.48650000       1.27220000
H        1.94230000      -3.34970000       2.19550000
H        0.13070000      -0.26350000       2.13760000
H        2.50930000      -0.50970000       2.01420000
