19
Properties=species:S:1:pos:R:3 gdb_74777=T pbc="F F F"
C       -0.00690000       1.49080000       0.05290000
C       -0.06390000       0.00290000      -0.02390000
C       -0.08680000      -0.80800000      -1.08080000
C       -0.02940000      -2.24270000      -0.57940000
C        1.43200000      -2.74290000      -0.44720000
C        2.13730000      -2.04350000       0.69580000
C        1.49870000      -1.18310000       1.48990000
C        0.02700000      -0.91520000       1.20760000
O       -0.56640000      -2.12840000       0.74330000
H        0.91390000       1.82480000       0.54810000
H       -0.03920000       1.94620000      -0.94050000
H       -0.84180000       1.89210000       0.64110000
H       -0.06100000      -0.52410000      -2.12560000
H       -0.64530000      -2.94870000      -1.14340000
H        1.43680000      -3.82730000      -0.27370000
H        1.97890000      -2.58130000      -1.38670000
H        3.18980000      -2.27040000       0.84610000
H        1.99760000      -0.65990000       2.29970000
H       -0.52280000      -0.56920000       2.08720000
