18
Properties=species:S:1:pos:R:3 gdb_18108=T pbc="F F F"
C        0.07900000       1.15970000       0.28200000
C        1.41750000       1.83960000      -0.03280000
C        2.25420000       0.68810000      -0.63520000
C        3.15440000      -0.08170000       0.37150000
C        2.50560000      -1.43760000       0.49550000
C        1.44670000      -1.57730000      -0.29800000
C        1.15580000      -0.33040000      -1.09720000
O       -0.11910000       0.24630000      -0.78740000
H        0.12360000       0.63460000       1.24940000
H       -0.77460000       1.84240000       0.30020000
H        1.26160000       2.62480000      -0.77890000
H        1.88530000       2.29540000       0.84390000
H        2.84710000       1.04370000      -1.47920000
H        4.18550000      -0.16600000       0.00530000
H        3.22420000       0.42340000       1.34390000
H        2.89060000      -2.20070000       1.16470000
H        0.82230000      -2.46000000      -0.37680000
H        1.14500000      -0.51850000      -2.17630000
