15
Properties=species:S:1:pos:R:3 gdb_4497=T pbc="F F F"
C        0.09610000       1.47250000       0.00860000
C       -0.06750000      -0.00280000      -0.03160000
C       -1.14080000      -0.82980000      -0.12740000
C       -0.62440000      -2.17110000      -0.08780000
O       -1.30740000      -3.36460000      -0.07180000
C        0.72870000      -2.06210000       0.01740000
N        1.75640000      -3.00130000       0.01620000
O        1.08410000      -0.75020000       0.05450000
H        0.72170000       1.83660000      -0.81520000
H       -0.88190000       1.95330000      -0.06930000
H        0.56430000       1.80440000       0.94320000
H       -2.17600000      -0.53190000      -0.19670000
H       -1.90130000      -3.39220000      -0.82900000
H        1.36100000      -3.93420000       0.00260000
H        2.37050000      -2.91230000       0.81990000
