18
Properties=species:S:1:pos:R:3 gdb_64887=T pbc="F F F"
C       -0.04900000       1.52500000      -0.06740000
C        0.00670000       0.00340000      -0.01930000
C        1.33140000      -0.70440000      -0.21620000
C        0.71400000      -0.70040000       1.17000000
C        1.35390000       0.10210000       2.29460000
C        0.13440000      -1.94160000       1.62530000
N       -0.30660000      -2.92990000       2.03380000
C       -1.16870000      -0.63390000      -0.55350000
C       -2.16450000      -1.12980000      -1.00870000
H        0.88560000       1.98220000       0.26300000
H       -0.23440000       1.84770000      -1.09590000
H       -0.86320000       1.90570000       0.55580000
H        1.33330000      -1.63390000      -0.77150000
H        2.21080000      -0.08340000      -0.35100000
H        1.86110000       0.98940000       1.91310000
H        0.60660000       0.41770000       3.02830000
H        2.09690000      -0.51160000       2.81230000
H       -3.03970000      -1.58830000      -1.39810000
