16
Properties=species:S:1:pos:R:3 gdb_7425=T pbc="F F F"
C        0.08870000       1.48680000       0.13730000
C       -0.04420000      -0.04690000       0.20230000
O       -1.39500000      -0.43170000       0.24380000
C        0.63710000      -0.70010000      -0.99030000
O       -0.00720000      -1.28790000      -1.83310000
C        2.17540000      -0.62600000      -1.10310000
C        2.77470000      -1.20120000      -2.36050000
O        2.81660000      -0.14460000      -0.19830000
H        1.13220000       1.79690000       0.21970000
H       -0.33580000       1.86920000      -0.79630000
H       -0.47790000       1.91460000       0.96760000
H        0.46920000      -0.39870000       1.10870000
H       -1.57210000      -0.88920000      -0.59170000
H        2.38640000      -0.67110000      -3.23670000
H        3.86090000      -1.12100000      -2.31970000
H        2.46960000      -2.24570000      -2.47750000
