14
Properties=species:S:1:pos:R:3 gdb_77783=T pbc="F F F"
C        0.04370000       1.59080000       0.03090000
C        0.07310000       0.08060000       0.03090000
C        1.30890000      -0.77770000      -0.27320000
C        2.50460000      -0.16820000       0.41450000
O        3.61710000       0.13790000       0.15430000
O        1.86580000      -0.06230000       1.65470000
C        0.69670000      -0.73790000       1.12090000
C        0.08440000      -1.75920000       1.90200000
N       -0.44310000      -2.58110000       2.52130000
H        0.91590000       2.01220000       0.53390000
H        0.01770000       1.96770000      -0.99550000
H       -0.85200000       1.94790000       0.54760000
H       -0.81850000      -0.39460000      -0.37440000
H        1.32020000      -1.56500000      -1.01270000
