16
Properties=species:S:1:pos:R:3 gdb_131723=T pbc="F F F"
O        0.33180000       1.11970000      -0.54030000
C        0.05290000      -0.06160000       0.18100000
C       -1.41930000      -0.35600000       0.20220000
N       -2.04950000      -0.91370000       1.24190000
N       -3.29700000      -1.00830000       0.72130000
C       -4.74590000      -1.24030000       0.89150000
C       -4.87580000      -0.68760000      -0.59150000
C       -3.36590000      -0.50280000      -0.50200000
N       -2.18930000      -0.06700000      -0.90930000
H       -0.28760000       1.13400000      -1.28100000
H        0.58500000      -0.92670000      -0.25070000
H        0.41610000       0.06450000       1.20490000
H       -5.01290000      -2.28820000       1.04230000
H       -5.20280000      -0.61350000       1.66000000
H       -5.22740000      -1.41670000      -1.32360000
H       -5.45730000       0.23200000      -0.67910000
