19
Properties=species:S:1:pos:R:3 gdb_110885=T pbc="F F F"
C        0.28010000       0.85260000      -0.40300000
O       -0.09930000      -0.10760000       0.57060000
C       -1.34890000      -0.64270000       0.33730000
C       -1.54610000      -1.68940000      -0.75610000
O       -0.35930000      -2.22730000      -1.27780000
C        0.09620000      -3.21840000      -0.35760000
C        1.60520000      -3.22960000      -0.30260000
O       -0.44090000      -2.87320000       0.91590000
C       -1.58330000      -2.09600000       0.69030000
H        1.26700000       1.22170000      -0.11450000
H        0.33520000       0.40240000      -1.40150000
H       -0.42230000       1.69890000      -0.42810000
H       -2.19200000       0.03370000       0.50300000
H       -2.39580000      -1.68670000      -1.43120000
H       -0.30900000      -4.19960000      -0.66310000
H        1.95820000      -2.24950000       0.02390000
H        1.94490000      -3.99130000       0.40380000
H        2.01290000      -3.45890000      -1.29060000
H       -2.47110000      -2.41210000       1.22760000
