19
Properties=species:S:1:pos:R:3 gdb_36651=T pbc="F F F"
C       -0.05330000      -1.19310000      -0.02860000
C       -0.00140000       0.00480000      -0.11570000
C        0.09590000       1.45600000      -0.20670000
C        1.47340000       1.99510000       0.23910000
C        1.53250000       3.50450000       0.16220000
C        2.80610000       4.33520000       0.14430000
C        3.85010000       3.68480000      -0.75710000
O        2.89190000       3.55180000      -1.84230000
C        1.91220000       4.26070000      -1.07640000
H       -0.11130000      -2.25080000       0.04150000
H       -0.09560000       1.77460000      -1.23910000
H       -0.69350000       1.91300000       0.40500000
H        1.67700000       1.65960000       1.26220000
H        2.24090000       1.55680000      -0.40340000
H        0.74920000       4.01530000       0.72240000
H        2.98920000       5.14560000       0.83690000
H        4.65510000       4.36980000      -1.04550000
H        4.27660000       2.72240000      -0.45180000
H        1.30380000       4.99390000      -1.59430000
