13
Properties=species:S:1:pos:R:3 gdb_16778=T pbc="F F F"
N       -0.11670000       1.28900000      -0.05760000
C       -0.01660000       0.02670000       0.00770000
N        1.11600000      -0.78650000       0.11320000
C        0.86450000      -2.15660000      -0.00870000
N        1.66810000      -3.13380000      -0.09080000
C       -0.63160000      -2.28410000      -0.05960000
O       -1.25340000      -1.75020000       1.11640000
C       -1.18240000      -0.91920000      -0.04940000
H        0.79370000       1.75140000      -0.01650000
H        2.03750000      -0.41590000       0.28700000
H        2.64470000      -2.83540000      -0.05090000
H       -1.09260000      -3.15130000      -0.51610000
H       -2.11850000      -0.60900000      -0.49710000
