15
Properties=species:S:1:pos:R:3 gdb_67158=T pbc="F F F"
O       -0.11670000       1.43150000      -0.01710000
C        0.01150000       0.06850000      -0.00030000
C        0.68450000      -0.89150000       1.04680000
C       -0.68730000      -1.54740000       1.30890000
C       -1.25560000      -0.87530000       0.01920000
C       -0.70130000      -1.53180000      -1.25710000
O       -1.19970000      -2.16700000      -2.13940000
C        0.69140000      -0.88260000      -1.05980000
O        1.40100000      -1.57500000      -0.00720000
H        0.75890000       1.82980000      -0.08580000
H        1.33700000      -0.63520000       1.88340000
H       -0.70720000      -2.63760000       1.37340000
H       -1.16320000      -1.11670000       2.19550000
H       -2.28980000      -0.53470000       0.01050000
H        1.32100000      -0.62730000      -1.91490000
