15
Properties=species:S:1:pos:R:3 gdb_12038=T pbc="F F F"
C       -0.06500000       1.57160000       0.01460000
C        0.06330000       0.05750000       0.08330000
O        1.08530000      -0.47790000      -0.81090000
C        1.66800000      -1.22570000       0.26830000
C        2.22040000      -0.29960000       1.29770000
C        0.73870000      -0.62070000       1.29100000
C       -1.22730000      -0.58730000      -0.22010000
N       -2.24850000      -1.08210000      -0.43770000
H        0.88060000       2.04280000       0.28860000
H       -0.32970000       1.87890000      -1.00070000
H       -0.84760000       1.91650000       0.69640000
H        1.98210000      -2.24180000       0.06680000
H        2.75870000      -0.77210000       2.11370000
H        2.59740000       0.67410000       1.00160000
H        0.21300000      -1.06250000       2.12500000
