19
Properties=species:S:1:pos:R:3 gdb_105674=T pbc="F F F"
C        0.50200000      -0.60720000       1.44580000
C        0.06240000       0.08390000       0.15110000
C        0.79410000      -0.40000000      -1.10820000
O        2.22390000      -0.57880000      -0.91910000
C        2.12650000      -2.00100000      -1.17270000
C        0.64090000      -1.89090000      -1.54000000
O       -0.19140000      -2.73850000      -0.79150000
C        0.55980000       0.59210000      -2.23070000
O       -0.32480000       0.49290000      -3.04270000
H        0.25710000      -1.67050000       1.42600000
H        1.58050000      -0.49890000       1.58470000
H       -0.00040000      -0.15150000       2.30410000
H       -1.01220000      -0.05090000      -0.02230000
H        0.22480000       1.16620000       0.24620000
H        2.81320000      -2.32390000      -1.96170000
H        2.29490000      -2.59190000      -0.26560000
H        0.43480000      -1.97710000      -2.61160000
H       -1.07520000      -2.70850000      -1.17050000
H        1.28630000       1.43560000      -2.24200000
