20
Properties=species:S:1:pos:R:3 gdb_23224=T pbc="F F F"
O       -0.09270000       1.33720000       0.24800000
N        0.02690000      -0.06880000       0.27470000
C       -1.06910000      -0.63330000      -0.05670000
C       -2.34200000       0.09920000      -0.43260000
C       -3.52420000      -0.84750000      -0.79130000
C       -3.14720000      -2.33100000      -0.68850000
C       -2.40740000      -2.60880000       0.64890000
C       -1.11120000      -2.13000000      -0.07900000
C       -1.79420000      -2.59540000      -1.40420000
H        0.78950000       1.61590000       0.51370000
H       -2.60480000       0.76560000       0.39560000
H       -2.10960000       0.77530000      -1.26200000
H       -4.37320000      -0.64710000      -0.12840000
H       -3.87200000      -0.63620000      -1.80860000
H       -3.99660000      -2.96850000      -0.94630000
H       -2.72600000      -2.06640000       1.54400000
H       -2.35710000      -3.67750000       0.87270000
H       -0.14890000      -2.55520000       0.20570000
H       -1.62560000      -3.66160000      -1.57650000
H       -1.57160000      -2.04120000      -2.32080000
