13
Properties=species:S:1:pos:R:3 gdb_20994=T pbc="F F F"
C       -0.01970000       1.52550000       0.01060000
N        0.03350000       0.07620000       0.00240000
C        0.07330000      -0.77840000      -1.06910000
O        0.04000000      -0.27860000      -2.31370000
N        0.13530000      -2.02320000      -0.71380000
N        0.14380000      -2.03100000       0.69410000
C        0.08620000      -0.79020000       1.06380000
O        0.06800000      -0.30400000       2.31410000
H        0.98390000       1.96230000       0.00680000
H       -0.55830000       1.86600000      -0.87500000
H       -0.54720000       1.85620000       0.90660000
H        0.05250000      -1.03640000      -2.91290000
H        0.08760000      -1.06840000       2.90480000
