16
Properties=species:S:1:pos:R:3 gdb_67615=T pbc="F F F"
O       -0.05600000       1.34920000       0.09320000
C        0.05300000      -0.02960000       0.04260000
C       -0.35350000      -0.90500000      -1.12090000
O        0.49050000      -2.02920000      -1.20040000
C        0.77640000      -2.21490000       0.15440000
C       -0.51550000      -2.05910000       1.04000000
N        0.36310000      -1.40010000       2.04980000
C        1.08030000      -0.85220000       0.86640000
C       -1.15060000      -0.94900000       0.17600000
H        0.61590000       1.72770000      -0.48490000
H       -0.73790000      -0.54650000      -2.06730000
H        1.43620000      -3.05910000       0.32680000
H       -1.14000000      -2.88930000       1.36640000
H       -0.11830000      -0.67930000       2.58840000
H        2.07670000      -0.43370000       1.00940000
H       -2.17310000      -0.60730000       0.25450000
