20
Properties=species:S:1:pos:R:3 gdb_8144=T pbc="F F F"
C        0.03380000       1.48780000       0.01670000
C       -0.01890000      -0.00640000      -0.02970000
C       -0.03840000      -0.78760000      -1.11610000
C       -0.01050000      -2.23660000      -0.77150000
C        1.23340000      -2.69820000      -0.02910000
C        0.00550000      -2.29650000       0.75040000
C       -0.75260000      -3.34320000       1.53130000
C       -0.04590000      -0.84400000       1.23840000
H        0.94450000       1.84310000       0.51640000
H        0.01010000       1.92230000      -0.98660000
H       -0.81060000       1.89860000       0.58590000
H       -0.03110000      -0.42460000      -2.13880000
H       -0.55930000      -2.95720000      -1.36950000
H        1.46910000      -3.75820000      -0.05270000
H        2.09820000      -2.04160000      -0.04180000
H       -0.71420000      -4.31700000       1.03240000
H       -0.33430000      -3.47260000       2.53710000
H       -1.80770000      -3.06790000       1.64540000
H        0.78860000      -0.59880000       1.90970000
H       -0.96330000      -0.65120000       1.81510000
