16
Properties=species:S:1:pos:R:3 gdb_124914=T pbc="F F F"
C        0.02170000       1.50320000       0.11440000
C        0.02160000       0.01880000      -0.02550000
C       -0.03150000      -0.77960000      -1.16610000
C       -0.08970000      -0.37480000      -2.51370000
C       -0.12800000      -0.06010000      -3.67790000
C       -0.00530000      -2.12080000      -0.66570000
N       -0.10250000      -3.27380000      -1.42460000
N        0.06650000      -2.15200000       0.65640000
N        0.07580000      -0.83440000       1.01580000
H        0.91290000       1.86160000       0.64180000
H        0.00660000       1.96080000      -0.87660000
H       -0.85630000       1.85880000       0.66560000
H       -0.17760000       0.22340000      -4.69950000
H        0.27060000      -3.17710000      -2.35830000
H        0.25010000      -4.09400000      -0.95140000
H        0.12170000      -0.60420000       1.99310000
