15
Properties=species:S:1:pos:R:3 gdb_10471=T pbc="F F F"
O        0.37000000       2.30860000      -1.42450000
C        0.10040000       1.81280000      -0.34670000
N        0.96840000       1.15630000       0.45870000
C        2.35510000       0.91350000       0.21170000
C        2.91310000       0.62910000      -1.18130000
C        3.25890000       1.91510000      -0.50390000
C        2.97170000       0.16030000       1.32580000
O        2.36620000      -0.19620000       2.30980000
H       -0.91330000       1.85090000       0.09640000
H        0.64840000       0.77580000       1.34030000
H        3.66490000      -0.14850000      -1.26570000
H        2.18980000       0.67880000      -1.98390000
H        2.76230000       2.80600000      -0.86370000
H        4.25790000       2.05570000      -0.10460000
H        4.05160000      -0.05800000       1.18940000
