13
Properties=species:S:1:pos:R:3 gdb_14808=T pbc="F F F"
C       -0.23160000      -1.23700000      -0.25120000
C       -0.15980000      -0.04670000      -0.10560000
C       -0.06510000       1.38100000       0.08230000
C        0.08980000       1.94460000       1.52170000
O        1.22900000       2.74280000       1.12760000
C        1.30390000       2.11300000      -0.15950000
C        2.48370000       1.25500000      -0.30600000
N        3.41950000       0.58920000      -0.43030000
H       -0.28530000      -2.28990000      -0.38250000
H       -0.85530000       1.89840000      -0.46730000
H       -0.73270000       2.56270000       1.89150000
H        0.35850000       1.18820000       2.26600000
H        1.29670000       2.84590000      -0.97340000
