21
Properties=species:S:1:pos:R:3 gdb_68359=T pbc="F F F"
O       -0.09050000       1.48080000      -0.01060000
C        0.03600000       0.07500000       0.07680000
C        0.13450000      -0.55300000       1.50200000
C       -0.90350000      -1.62340000       1.04070000
C       -1.33610000      -0.61840000      -0.07650000
C       -0.30590000      -2.88340000       0.47670000
C        0.79440000      -2.96200000      -0.27440000
C        1.71880000      -1.82650000      -0.65280000
C        1.09880000      -0.43580000      -0.91430000
H        0.78850000       1.87000000       0.05290000
H        1.10290000      -0.90310000       1.86680000
H       -0.30440000       0.13060000       2.23290000
H       -1.67620000      -1.86830000       1.77120000
H       -2.12610000       0.05470000       0.26580000
H       -1.59410000      -1.03100000      -1.05450000
H       -0.85200000      -3.80200000       0.67940000
H        1.10350000      -3.94420000      -0.62550000
H        2.48360000      -1.73090000       0.13150000
H        2.27740000      -2.11340000      -1.55090000
H        0.66080000      -0.40400000      -1.91880000
H        1.92690000       0.28700000      -0.92210000
