21
Properties=species:S:1:pos:R:3 gdb_111972=T pbc="F F F"
C       -0.11630000       1.60890000      -0.03800000
C        0.06770000       0.08780000      -0.04240000
C        0.87730000      -0.45000000      -1.20330000
C        1.69690000      -1.42900000      -0.83020000
C        1.58630000      -1.72140000       0.64950000
C        2.91480000      -2.02020000       1.34080000
O        3.38850000      -3.25190000       0.80370000
C        0.83390000      -0.48180000       1.19490000
O        1.81080000       0.42700000       1.69470000
H        0.85040000       2.11970000      -0.02740000
H       -0.65760000       1.93240000      -0.93260000
H       -0.69810000       1.94440000       0.82940000
H       -0.93270000      -0.37280000      -0.05870000
H        0.75600000      -0.07720000      -2.21520000
H        2.35470000      -1.99910000      -1.47490000
H        0.95600000      -2.61150000       0.79520000
H        3.62320000      -1.20300000       1.15880000
H        2.76310000      -2.09240000       2.42870000
H        4.27970000      -3.39610000       1.13360000
H        0.13910000      -0.75520000       2.00150000
H        1.34930000       1.17900000       2.07650000
