21
Properties=species:S:1:pos:R:3 gdb_68414=T pbc="F F F"
O       -0.13840000       1.37560000       0.02320000
C        0.01420000      -0.00740000       0.03110000
C        0.89830000      -0.80090000      -0.98330000
C        0.70500000      -1.92700000       0.07490000
C        0.75220000      -0.80480000       1.15350000
C       -0.81000000      -2.21550000      -0.02930000
C       -1.31140000      -0.75760000      -0.06090000
C       -2.55440000      -0.26210000       0.61480000
C       -2.45100000      -0.25940000      -0.89780000
H        0.73210000       1.78050000       0.08340000
H        0.51030000      -0.95800000      -1.99330000
H        1.92810000      -0.43330000      -1.01850000
H        1.37810000      -2.78160000       0.11930000
H        1.76750000      -0.43760000       1.32990000
H        0.23030000      -0.96540000       2.10070000
H       -1.06510000      -2.77190000      -0.93700000
H       -1.18610000      -2.77520000       0.83320000
H       -3.20940000      -0.99020000       1.08310000
H       -2.50670000       0.69770000       1.11800000
H       -2.33550000       0.70230000      -1.38630000
H       -3.03590000      -0.98560000      -1.45350000
