13
Properties=species:S:1:pos:R:3 gdb_24789=T pbc="F F F"
N       -0.07220000       1.31770000       0.16240000
C       -0.00990000       0.05250000      -0.01800000
C       -1.24150000      -0.73520000      -0.06760000
C       -1.18610000      -2.07010000      -0.25750000
N        0.05290000      -2.68810000      -0.40530000
C        1.18370000      -1.91750000      -0.35300000
N        1.21130000      -0.64870000      -0.17650000
C       -2.33430000      -2.91470000      -0.31920000
N       -3.24490000      -3.62680000      -0.37400000
H        0.87740000       1.69670000       0.16860000
H       -2.18970000      -0.22910000       0.05020000
H        0.11070000      -3.68320000      -0.54750000
H        2.11330000      -2.47020000      -0.47640000
