22
Properties=species:S:1:pos:R:3 gdb_108332=T pbc="F F F"
C        0.06880000       1.49780000       0.22040000
C       -0.10900000       0.01250000      -0.11750000
C        0.69480000      -0.48150000      -1.30790000
C        0.84680000      -2.02640000      -1.48690000
C        2.39780000      -1.85420000      -1.58640000
C        2.23260000      -0.31900000      -1.44450000
N        2.10290000       0.55900000      -2.68120000
C        1.38720000      -0.18900000      -3.73170000
C        0.59380000       0.34270000      -2.61060000
H        1.11830000       1.73810000       0.41780000
H       -0.26960000       2.14680000      -0.59260000
H       -0.50660000       1.76010000       1.11340000
H        0.16660000      -0.58940000       0.75830000
H       -1.17290000      -0.19740000      -0.30170000
H        0.52720000      -2.59100000      -0.60690000
H        0.35070000      -2.45290000      -2.36280000
H        2.93170000      -2.28710000      -0.73660000
H        2.88120000      -2.21090000      -2.49950000
H        2.84920000       0.18970000      -0.70240000
H        1.35050000       0.36490000      -4.66590000
H        1.54630000      -1.25390000      -3.86370000
H       -0.09440000       1.17230000      -2.74840000
