21
Properties=species:S:1:pos:R:3 gdb_11621=T pbc="F F F"
C       -0.27630000       1.47470000       0.39440000
C       -0.04690000       0.02240000      -0.00880000
C        0.89200000      -0.70250000       0.96090000
O       -1.33340000      -0.58570000      -0.06240000
C       -1.39480000      -1.81900000      -0.74630000
C       -2.84050000      -2.17490000      -0.96520000
C       -3.24360000      -3.60260000      -0.99790000
N       -3.63960000      -2.74360000       0.12910000
H        0.66900000       2.02520000       0.41330000
H       -0.95340000       1.96340000      -0.31080000
H       -0.72650000       1.52490000       1.39090000
H        0.39760000      -0.00480000      -1.01920000
H        1.07620000      -1.73660000       0.65510000
H        1.86070000      -0.19460000       1.00530000
H        0.46090000      -0.71240000       1.96740000
H       -0.87420000      -1.74400000      -1.71720000
H       -0.90210000      -2.62450000      -0.17510000
H       -3.38840000      -1.46000000      -1.57500000
H       -4.05840000      -3.92330000      -1.64040000
H       -2.47220000      -4.35330000      -0.84110000
H       -3.04070000      -2.92110000       0.93250000
