18
Properties=species:S:1:pos:R:3 gdb_89446=T pbc="F F F"
C       -0.13020000       1.55090000       0.30640000
C        0.08110000       0.08890000      -0.00200000
C       -1.14340000      -0.86540000       0.01320000
C       -0.50150000      -1.65830000       1.20400000
O       -0.41650000      -3.05040000       1.12610000
C        0.81750000      -0.85630000       0.99860000
N        1.78880000      -1.58210000       0.16530000
C        1.72720000      -1.04640000      -0.98820000
O        0.86440000      -0.04080000      -1.23040000
H        0.82730000       2.07150000       0.40130000
H       -0.71200000       2.03610000      -0.48380000
H       -0.67850000       1.66130000       1.24690000
H       -2.11220000      -0.40000000       0.20880000
H       -1.21380000      -1.46250000      -0.89860000
H       -0.98570000      -1.41090000       2.15420000
H        0.36970000      -3.24800000       0.59860000
H        1.30520000      -0.44960000       1.88890000
H        2.33930000      -1.33130000      -1.83780000
