18
Properties=species:S:1:pos:R:3 gdb_29574=T pbc="F F F"
C       -0.02810000       1.53160000       0.00490000
C       -0.03060000       0.03510000      -0.00490000
C       -0.04900000      -0.78830000      -1.08530000
O       -0.04830000      -2.09590000      -0.70840000
C       -0.02530000      -2.10700000       0.64950000
C       -0.02230000      -0.84040000       1.14700000
C        0.00520000      -0.42430000       2.56810000
C       -1.25800000      -0.14810000       3.31030000
N       -0.44300000      -1.33040000       3.63880000
H        0.88130000       1.93140000       0.46880000
H       -0.08560000       1.93280000      -1.01060000
H       -0.87650000       1.93010000       0.57240000
H       -0.06820000      -0.60610000      -2.14770000
H        0.00450000      -3.08140000       1.10920000
H        0.87690000       0.16190000       2.85590000
H       -1.27930000       0.62150000       4.07670000
H       -2.19400000      -0.29550000       2.77880000
H       -0.87640000      -2.15240000       3.22500000
