18
Properties=species:S:1:pos:R:3 gdb_71662=T pbc="F F F"
O       -0.09780000       1.37820000      -0.01650000
C        0.04900000      -0.01450000      -0.00780000
C        0.77590000      -0.71250000      -1.18760000
C        0.38490000      -2.12180000      -0.73780000
C       -1.14690000      -2.09640000      -0.68420000
C       -1.07320000      -2.03900000       0.80500000
C       -1.31690000      -0.75800000       0.03180000
N        0.41460000      -2.10920000       0.82490000
C        0.78560000      -0.71740000       1.16610000
H        0.77890000       1.77360000      -0.05370000
H        0.34000000      -0.46670000      -2.16020000
H        1.85360000      -0.51590000      -1.20520000
H        0.90090000      -2.97850000      -1.16680000
H       -1.86620000      -2.56550000      -1.34240000
H       -1.68960000      -2.46440000       1.58750000
H       -2.25610000      -0.22260000       0.04470000
H        1.87140000      -0.56940000       1.15770000
H        0.38540000      -0.45170000       2.14830000
