13
Properties=species:S:1:pos:R:3 gdb_19491=T pbc="F F F"
N        0.00070000      -1.15410000      -0.10180000
C        0.01880000      -0.00010000      -0.02830000
C       -0.00680000       1.43780000       0.05020000
C        0.51370000       2.15190000       1.25810000
C        1.42290000       1.39960000       2.23050000
N        2.59860000       1.01210000       1.43190000
C        2.42630000       1.46080000       0.25900000
N        1.25100000       2.24780000      -0.01620000
H       -0.82780000       1.88790000      -0.50000000
H       -0.01510000       3.04190000       1.58160000
H        1.73440000       2.04890000       3.05520000
H        0.96750000       0.50540000       2.66860000
H        3.13220000       1.31720000      -0.55210000
