19
Properties=species:S:1:pos:R:3 gdb_59035=T pbc="F F F"
C       -0.00130000       1.55370000       0.00310000
C        0.00700000       0.01290000       0.02890000
C        0.77270000      -0.51650000       1.25690000
C       -1.39360000      -0.53300000      -0.00770000
C       -1.99220000      -1.30700000      -0.91560000
C       -3.40420000      -1.58200000      -0.49790000
O       -3.56430000      -0.89240000       0.73890000
C       -2.39440000      -0.25630000       1.06650000
O       -2.28110000       0.39410000       2.07000000
H        1.02420000       1.93630000       0.00590000
H       -0.50270000       1.93240000      -0.89300000
H       -0.52010000       1.94760000       0.88050000
H        0.51680000      -0.34390000      -0.87510000
H        1.79690000      -0.13050000       1.25780000
H        0.28200000      -0.19760000       2.17970000
H        0.82170000      -1.60990000       1.25230000
H       -1.56170000      -1.69920000      -1.82860000
H       -4.14390000      -1.20550000      -1.21630000
H       -3.60360000      -2.65000000      -0.34090000
