17
Properties=species:S:1:pos:R:3 gdb_125928=T pbc="F F F"
C       -0.54160000       1.58310000      -0.29440000
C        0.12670000       0.26150000       0.02350000
C        0.85940000      -0.54010000      -1.13430000
C        2.07270000      -0.45570000      -0.22590000
N        3.19220000      -0.96840000       0.24190000
C        3.20130000      -0.40360000       1.50720000
N        4.23200000      -0.66510000       2.38330000
N        2.15540000       0.36350000       1.84250000
N        1.47750000       0.35020000       0.65080000
H        0.12640000       2.22770000      -0.87320000
H       -1.45430000       1.41380000      -0.87490000
H       -0.81660000       2.10850000       0.62500000
H       -0.53080000      -0.39500000       0.60220000
H        0.47430000      -1.54860000      -1.29660000
H        0.92630000      -0.01330000      -2.08890000
H        5.09780000      -0.90210000       1.92330000
H        4.33800000       0.02500000       3.11160000
