19
Properties=species:S:1:pos:R:3 gdb_119363=T pbc="F F F"
C       -0.10150000       1.53130000       0.02140000
C        0.05530000       0.00990000      -0.00140000
C        0.76040000      -0.53000000       1.25260000
C        0.90650000      -2.01750000       1.23460000
C        1.42370000      -3.01290000       2.30920000
C        0.75100000      -3.88320000       1.22480000
O       -0.33140000      -2.86950000       1.13790000
C        1.44560000      -3.00440000       0.15340000
O        1.94730000      -3.03780000      -0.92210000
H        0.87200000       2.03130000       0.07640000
H       -0.60830000       1.88910000      -0.87980000
H       -0.69020000       1.85770000       0.88610000
H       -0.92670000      -0.46840000      -0.08540000
H        0.62340000      -0.29610000      -0.88740000
H        1.76570000      -0.09660000       1.33880000
H        0.21320000      -0.23320000       2.15660000
H        2.50160000      -3.10280000       2.46900000
H        0.84940000      -2.97200000       3.23650000
H        0.45960000      -4.93050000       1.24420000
