20
Properties=species:S:1:pos:R:3 gdb_118896=T pbc="F F F"
O       -0.08700000       1.50010000      -0.02520000
C        0.02060000       0.08730000       0.03240000
C       -1.38040000      -0.49020000      -0.14130000
C       -1.43510000      -2.01220000      -0.02590000
O       -0.70180000      -2.63890000      -1.07160000
C       -1.18370000      -2.69780000       1.35540000
N       -2.48430000      -3.45550000       1.28540000
C       -3.53340000      -2.42170000       1.26710000
C       -2.80510000      -2.68830000       0.01310000
H        0.79510000       1.87460000       0.05460000
H        0.68410000      -0.28780000      -0.76400000
H        0.44560000      -0.23990000       0.99680000
H       -2.02850000      -0.03260000       0.61320000
H       -1.76620000      -0.19560000      -1.12360000
H        0.23600000      -2.47440000      -0.92930000
H       -0.34150000      -3.39230000       1.32520000
H       -1.10060000      -2.05280000       2.23750000
H       -4.53420000      -2.83330000       1.35600000
H       -3.37870000      -1.49510000       1.81640000
H       -3.25180000      -3.16910000      -0.85080000
