15
Properties=species:S:1:pos:R:3 gdb_51989=T pbc="F F F"
N        0.28590000       1.02650000       0.63790000
C       -0.01930000      -0.01850000      -0.00570000
N       -1.32520000      -0.40820000      -0.29610000
C       -2.50070000       0.23630000       0.03450000
O       -2.63220000       1.26530000       0.63330000
O       -3.52730000      -0.52870000      -0.45830000
C       -4.84500000      -0.03280000      -0.23270000
C       -5.61520000      -1.00240000       0.64540000
O       -6.81460000      -1.05400000       0.68060000
H        1.29850000       1.09550000       0.72270000
H        0.68740000      -0.75000000      -0.41650000
H       -1.44270000      -1.26400000      -0.81450000
H       -4.78710000       0.94050000       0.26890000
H       -5.35100000       0.08550000      -1.19450000
H       -4.96740000      -1.65810000       1.27010000
