15
Properties=species:S:1:pos:R:3 gdb_47301=T pbc="F F F"
N       -0.07030000       1.38650000      -0.37920000
C        0.04740000       0.19560000       0.03890000
N       -1.06160000      -0.61880000       0.14540000
C       -1.26140000      -1.77650000       1.00170000
C       -0.30230000      -2.93100000       0.71340000
O       -0.66010000      -4.03690000       0.43440000
O        1.02710000      -2.65230000       0.80850000
C        1.43250000      -1.36850000       1.24720000
O        1.27910000      -0.36970000       0.27650000
H        0.84640000       1.81360000      -0.48710000
H       -1.89820000      -0.09150000      -0.05360000
H       -1.22330000      -1.53890000       2.07810000
H       -2.25660000      -2.16840000       0.79540000
H        0.92230000      -1.09690000       2.17860000
H        2.50440000      -1.45290000       1.42070000
