19
Properties=species:S:1:pos:R:3 gdb_100591=T pbc="F F F"
C        0.12940000       1.47330000       0.40900000
C        0.22540000      -0.05170000       0.33100000
C        0.43090000      -0.56200000      -1.09340000
O        1.65400000      -0.09280000      -1.67540000
C        0.32330000      -2.09040000      -1.19430000
N       -0.42830000      -2.74690000      -0.41290000
N        1.09690000      -2.59990000      -2.25380000
C        1.17150000      -3.90410000      -2.66510000
O        0.57120000      -4.83620000      -2.17690000
H        1.01620000       1.95130000      -0.01770000
H       -0.74170000       1.84100000      -0.14430000
H        0.02950000       1.80490000       1.44630000
H        1.05530000      -0.41820000       0.95270000
H       -0.67310000      -0.52890000       0.72900000
H       -0.35100000      -0.14580000      -1.74310000
H        2.34970000      -0.20290000      -1.01630000
H       -0.41930000      -3.73900000      -0.65300000
H        1.67070000      -1.90870000      -2.72000000
H        1.86240000      -4.02030000      -3.52230000
