16
Properties=species:S:1:pos:R:3 gdb_14376=T pbc="F F F"
C       -0.00060000       1.48430000      -0.18510000
O        1.44830000       1.52150000       0.09550000
C        1.27380000       0.33410000       0.88660000
C        1.85160000      -1.06610000       1.21390000
C        0.47370000      -1.06560000       2.01530000
C        0.76560000       0.40430000       2.35760000
O       -0.61540000      -0.92610000       1.04720000
C        0.03750000      -0.04750000       0.12880000
H       -0.55860000       2.11130000       0.51680000
H       -0.20990000       1.77230000      -1.21730000
H        1.97830000      -1.76790000       0.38780000
H        2.69370000      -1.10450000       1.90690000
H        0.23220000      -1.83450000       2.74440000
H        1.57920000       0.54910000       3.07040000
H       -0.09710000       1.02560000       2.59980000
H        0.23760000      -0.57890000      -0.80730000
