17
Properties=species:S:1:pos:R:3 gdb_12673=T pbc="F F F"
C        0.64170000       1.47960000      -0.04080000
C       -0.02860000       0.10550000       0.03110000
C        0.38130000      -0.82250000      -1.12700000
O        1.61290000      -1.46220000      -0.70440000
C        1.72670000      -1.36640000       0.64040000
N        2.71770000      -1.69550000       1.35000000
C        0.47640000      -0.73660000       1.22260000
O        0.73340000      -0.03040000       2.40260000
H        1.72850000       1.38790000      -0.14100000
H        0.26900000       2.04510000      -0.90030000
H        0.44170000       2.04810000       0.86920000
H       -1.11540000       0.22140000       0.05940000
H       -0.36470000      -1.60170000      -1.32170000
H        0.59280000      -0.29380000      -2.05900000
H        3.48790000      -2.06930000       0.79630000
H       -0.24930000      -1.54830000       1.40910000
H        1.58750000      -0.36200000       2.72010000
