17
Properties=species:S:1:pos:R:3 gdb_13668=T pbc="F F F"
C        0.14880000       1.51670000      -0.25130000
C        0.02250000       0.04820000       0.06160000
O        1.23210000      -0.71020000       0.19390000
C        0.38370000      -0.58540000       1.34220000
C        0.96090000       0.13690000       2.53570000
C        2.13300000      -0.67050000       3.13630000
C        2.71990000      -0.01980000       4.30430000
N        3.16930000       0.51010000       5.22770000
H        0.93180000       1.99710000       0.33820000
H        0.39550000       1.65140000      -1.30940000
H       -0.80010000       2.02960000      -0.06140000
H       -0.74290000      -0.46690000      -0.52300000
H       -0.13780000      -1.51240000       1.59560000
H        1.31970000       1.13020000       2.25820000
H        0.17980000       0.27110000       3.29210000
H        1.79780000      -1.67310000       3.42700000
H        2.90710000      -0.80340000       2.37310000
