25
Properties=species:S:1:pos:R:3 gdb_59526=T pbc="F F F"
C       -0.21960000       1.46210000       0.03320000
C        0.01670000      -0.05200000      -0.05300000
C        0.77170000      -0.41970000      -1.33780000
C        0.74900000      -0.56790000       1.18450000
C        0.03260000      -0.48370000       2.56880000
C        0.53260000      -1.90370000       2.86130000
C        1.39500000      -2.29760000       4.02550000
C        0.01590000      -2.89880000       3.85350000
C        0.88910000      -2.10970000       1.38410000
H        0.73330000       2.00470000       0.05970000
H       -0.78280000       1.82510000      -0.83290000
H       -0.78060000       1.73130000       0.93390000
H       -0.96580000      -0.54740000      -0.08330000
H        1.75940000       0.05660000      -1.35960000
H        0.92190000      -1.50090000      -1.42090000
H        0.22510000      -0.08840000      -2.22700000
H        1.73570000      -0.09230000       1.24520000
H        0.34780000       0.30990000       3.25210000
H       -1.05780000      -0.43790000       2.46070000
H        2.25530000      -2.93250000       3.83630000
H        1.54110000      -1.57660000       4.82420000
H       -0.76720000      -2.58350000       4.53640000
H       -0.05330000      -3.93870000       3.54890000
H        0.11420000      -2.66270000       0.83960000
H        1.86010000      -2.56070000       1.16050000
