14
Properties=species:S:1:pos:R:3 gdb_13736=T pbc="F F F"
C       -0.70480000       0.60860000       0.88260000
C        0.28440000       0.01700000      -0.09130000
O        1.44490000       0.35270000      -0.15190000
C       -0.18250000      -1.07340000      -1.03380000
N       -1.43590000      -1.77610000      -0.76110000
C       -1.36570000      -0.94670000      -1.96510000
C       -2.21360000       0.22060000      -2.01930000
N       -2.88760000       1.15670000      -2.09530000
H       -0.17350000       1.26270000       1.57420000
H       -1.46660000       1.18670000       0.34810000
H       -1.23340000      -0.18360000       1.42000000
H        0.65580000      -1.62360000      -1.45560000
H       -1.37220000      -2.76130000      -1.00290000
H       -1.24670000      -1.43200000      -2.93070000
