18
Properties=species:S:1:pos:R:3 gdb_9151=T pbc="F F F"
C       -0.05950000       1.55730000       0.07950000
C       -0.04770000       0.02870000       0.12230000
C       -1.45020000      -0.57660000      -0.09050000
O       -2.03060000      -0.15720000      -1.32580000
C       -1.42370000      -2.03690000       0.02910000
C       -1.36560000      -3.23930000       0.10030000
C       -1.37220000      -4.69950000       0.18260000
O       -2.52370000      -5.22800000       0.82430000
H        0.95260000       1.95950000       0.18160000
H       -0.48080000       1.91310000      -0.86400000
H       -0.66710000       1.96960000       0.89270000
H        0.62030000      -0.37270000      -0.65090000
H        0.34000000      -0.33030000       1.08240000
H       -2.12240000      -0.17020000       0.67640000
H       -1.56930000      -0.62490000      -2.03110000
H       -1.24850000      -5.11770000      -0.82970000
H       -0.51660000      -5.04770000       0.77210000
H       -3.29450000      -4.83080000       0.40550000
