23
Properties=species:S:1:pos:R:3 gdb_101607=T pbc="F F F"
C       -0.05130000       1.54210000      -0.04270000
C       -0.01030000       0.01290000       0.01470000
C        0.62160000      -0.45060000       1.33780000
O       -1.37680000      -0.40330000      -0.04170000
C        0.76450000      -0.52500000      -1.21550000
C        0.85170000      -2.04620000      -1.34580000
O       -0.44910000      -2.67340000      -1.38620000
C        1.63990000      -2.49800000      -2.57740000
O        1.66360000      -3.90420000      -2.67890000
H        0.95420000       1.96810000       0.02430000
H       -0.51200000       1.87660000      -0.97680000
H       -0.64970000       1.92840000       0.78710000
H        0.06930000      -0.02000000       2.17750000
H        0.58350000      -1.53970000       1.44100000
H        1.66890000      -0.13930000       1.41670000
H       -1.37050000      -1.36790000      -0.09720000
H        0.28510000      -0.11930000      -2.11760000
H        1.78680000      -0.12650000      -1.19960000
H        1.32800000      -2.48680000      -0.46380000
H       -0.96360000      -2.22010000      -2.06680000
H        1.19760000      -2.03280000      -3.47800000
H        2.67790000      -2.15460000      -2.50950000
H        0.76730000      -4.19390000      -2.46500000
