18
Properties=species:S:1:pos:R:3 gdb_87654=T pbc="F F F"
C       -0.25940000       1.23720000      -0.06680000
N        0.04300000      -0.17430000       0.13620000
C        1.44010000      -0.58780000      -0.06130000
C        0.84590000      -0.56780000       1.28980000
C        1.09900000       0.28670000       2.53890000
C        0.17410000      -0.71170000       3.29050000
O       -0.45380000      -0.64590000       4.30300000
C        0.27730000      -1.74060000       2.12000000
O       -0.83990000      -2.39460000       1.61980000
H        0.56760000       1.90920000       0.21010000
H       -0.49120000       1.39860000      -1.12350000
H       -1.14080000       1.51210000       0.52080000
H        1.58700000      -1.53030000      -0.58290000
H        2.15880000       0.19180000      -0.31100000
H        2.13340000       0.25910000       2.89620000
H        0.75790000       1.32450000       2.53040000
H        1.05540000      -2.47740000       2.37070000
H       -1.18210000      -1.81020000       0.92400000
