23
Properties=species:S:1:pos:R:3 gdb_62828=T pbc="F F F"
C       -0.10660000       1.49190000       0.00420000
C        0.03680000      -0.03800000      -0.00500000
C       -1.30060000      -0.59720000      -0.51730000
C        1.31050000      -0.70170000      -0.59900000
C        2.14770000      -0.07770000       0.60070000
C        0.84330000      -0.67960000       1.21800000
C        0.13750000      -1.50260000       2.31750000
C       -0.05550000      -2.62630000       1.21410000
C        1.10260000      -1.92930000       0.38220000
H        0.69040000       2.02210000       0.52580000
H       -0.15410000       1.88130000      -1.01990000
H       -1.04840000       1.76720000       0.49260000
H       -1.65650000       0.03990000      -1.33510000
H       -1.22750000      -1.60960000      -0.91350000
H       -2.07710000      -0.57750000       0.25660000
H        1.61590000      -0.70060000      -1.65200000
H        3.06460000      -0.61190000       0.85990000
H        2.32310000       0.99830000       0.58270000
H        0.81410000      -1.83000000       3.11230000
H       -0.76200000      -1.07690000       2.77250000
H        0.21670000      -3.63560000       1.53170000
H       -1.05880000      -2.65930000       0.79860000
H        2.04380000      -2.44150000       0.60130000
