19
Properties=species:S:1:pos:R:3 gdb_98225=T pbc="F F F"
C       -1.43570000       0.90820000      -0.26310000
N       -0.32840000      -0.01950000       0.00430000
C       -0.19260000      -0.42510000       1.36040000
C        0.99700000      -1.25820000       1.77070000
N       -1.10480000      -0.01980000       2.15430000
C        0.42130000      -0.53220000      -1.03240000
O        1.31430000      -1.35420000      -0.89600000
C        0.12250000      -0.05210000      -2.46430000
O        0.95810000      -0.71560000      -3.36090000
H       -1.29570000       1.39380000      -1.22510000
H       -2.39690000       0.38670000      -0.24830000
H       -1.45880000       1.66160000       0.52250000
H        1.93780000      -0.80730000       1.45010000
H        0.98970000      -1.35140000       2.85940000
H        0.96610000      -2.25140000       1.32040000
H       -0.91020000      -0.33670000       3.10170000
H       -0.93540000      -0.24110000      -2.70150000
H        0.27430000       1.03790000      -2.52080000
H        1.51680000      -1.28260000      -2.80190000
