20
Properties=species:S:1:pos:R:3 gdb_80971=T pbc="F F F"
C        0.00360000       1.47110000       0.06230000
C       -0.03510000      -0.01720000       0.00580000
C       -0.03810000      -0.87820000      -1.02350000
C        0.03330000      -2.24730000      -0.34490000
C       -0.01770000      -3.52450000      -1.14010000
N       -0.89140000      -2.10190000       0.84690000
C        0.02790000      -0.96920000       1.20530000
C        1.17660000      -1.94430000       0.72430000
O        1.50900000      -2.98800000       1.57720000
H        0.90750000       1.82650000       0.57340000
H       -0.01020000       1.90990000      -0.93940000
H       -0.84830000       1.87620000       0.62340000
H       -0.00150000      -0.68290000      -2.08710000
H        0.70870000      -3.50020000      -1.95900000
H        0.21740000      -4.38070000      -0.50140000
H       -1.01060000      -3.68240000      -1.57520000
H       -1.82030000      -1.77470000       0.57450000
H       -0.01890000      -0.57150000       2.22020000
H        2.09680000      -1.49130000       0.35340000
H        0.66130000      -3.33810000       1.88940000
