18
Properties=species:S:1:pos:R:3 gdb_76650=T pbc="F F F"
C       -0.27900000       1.39340000       0.16680000
C       -0.51930000      -0.05090000      -0.23340000
O       -0.38580000      -0.41520000      -1.39780000
N       -0.89230000      -0.88260000       0.77410000
C       -1.08550000      -2.29750000       0.67380000
C       -2.49680000      -2.82970000       0.93790000
O       -3.50760000      -1.90420000       1.15360000
C       -1.92370000      -2.89110000      -0.44940000
O       -2.54250000      -2.04760000      -1.36120000
H       -0.96570000       2.03290000      -0.39400000
H       -0.40280000       1.58310000       1.23540000
H        0.73650000       1.66880000      -0.12950000
H       -1.08870000      -0.46910000       1.67230000
H       -0.24580000      -2.89940000       1.01560000
H       -2.60410000      -3.73270000       1.53050000
H       -3.70780000      -1.53960000       0.27660000
H       -1.58520000      -3.84710000      -0.84550000
H       -1.83780000      -1.45950000      -1.69960000
