18
Properties=species:S:1:pos:R:3 gdb_79047=T pbc="F F F"
C        0.06390000       1.52100000      -0.12440000
N       -0.01160000       0.06310000      -0.07700000
C       -1.17190000      -0.51790000       0.73520000
C       -0.37140000      -1.80580000       1.03350000
C       -0.30720000      -1.68660000       2.55590000
O        1.10390000      -1.78570000       2.91750000
C        1.81680000      -1.02570000       1.90740000
C        0.60100000      -0.58790000       1.11710000
C       -0.54750000      -0.23390000       2.13910000
H        1.05930000       1.81970000      -0.46850000
H       -0.66390000       1.88790000      -0.85510000
H       -0.13210000       2.01990000       0.83900000
H       -2.20200000      -0.40750000       0.39720000
H       -0.22040000      -2.66000000       0.37660000
H       -0.88330000      -2.26080000       3.27830000
H        2.37670000      -0.21120000       2.37910000
H        2.50380000      -1.67800000       1.35750000
H       -0.61290000       0.65560000       2.76210000
