17
Properties=species:S:1:pos:R:3 gdb_1185=T pbc="F F F"
C       -0.00750000       1.41700000       0.24300000
C       -0.09070000      -0.06360000      -0.13960000
C        0.75960000      -0.45620000      -1.37630000
C        0.23300000       0.14880000      -2.68120000
O        2.13820000      -0.15380000      -1.16860000
C        0.72170000      -1.98230000      -1.45810000
O       -0.20300000      -2.61290000      -1.89870000
H        1.02320000       1.71150000       0.46800000
H       -0.38830000       2.07240000      -0.54630000
H       -0.59990000       1.60980000       1.14200000
H        0.25030000      -0.66740000       0.71040000
H       -1.12880000      -0.35240000      -0.33650000
H        0.16640000       1.23930000      -2.61700000
H        0.90330000      -0.10550000      -3.50680000
H       -0.75900000      -0.25050000      -2.90560000
H        2.24600000       0.80080000      -1.21620000
H        1.63070000      -2.46790000      -1.03960000
