21
Properties=species:S:1:pos:R:3 gdb_70245=T pbc="F F F"
C        0.06630000       1.48100000      -0.06310000
C       -0.05480000      -0.00850000       0.09360000
C       -1.31700000      -0.74560000      -0.32520000
C       -1.11110000      -2.20900000       0.16700000
C       -2.41380000      -2.94460000       0.45170000
O       -0.43700000      -2.96840000      -0.83070000
C       -0.19870000      -2.05230000       1.42220000
C        0.61120000      -0.80750000       1.13490000
O        1.14210000      -0.77180000      -0.20930000
H        1.02580000       1.83440000       0.32280000
H       -0.00290000       1.76600000      -1.11850000
H       -0.73920000       1.99240000       0.47450000
H       -2.18120000      -0.27760000       0.16230000
H       -1.48760000      -0.72880000      -1.40580000
H       -3.01040000      -3.02070000      -0.46210000
H       -2.20320000      -3.95990000       0.80030000
H       -3.00350000      -2.42710000       1.21400000
H        0.38680000      -2.49160000      -1.00430000
H       -0.78800000      -1.89500000       2.33410000
H        0.41130000      -2.94940000       1.56130000
H        1.25810000      -0.36460000       1.88860000
