16
Properties=species:S:1:pos:R:3 gdb_44087=T pbc="F F F"
O        0.10260000      -0.01240000       0.03550000
C       -0.01590000       1.17550000      -0.02300000
C       -1.19360000       2.18360000       0.07150000
C       -0.08920000       3.21300000       0.32600000
C        0.15430000       4.65430000      -0.09800000
O        1.03010000       4.86150000       1.04350000
C        0.73770000       3.56540000       1.59890000
C        1.76600000       2.47400000       1.18960000
N        0.95890000       2.20760000      -0.05310000
H       -1.74930000       2.33780000      -0.85770000
H       -1.89680000       1.97810000       0.88040000
H        0.66470000       4.79790000      -1.05640000
H       -0.72660000       5.30650000      -0.04120000
H        0.39020000       3.61530000       2.63380000
H        2.76750000       2.85540000       0.98240000
H        1.82300000       1.59950000       1.84450000
