23
Properties=species:S:1:pos:R:3 gdb_122935=T pbc="F F F"
C       -0.03820000       1.48570000      -0.06520000
C       -0.06340000      -0.03870000       0.06970000
C       -1.46400000      -0.61310000      -0.09160000
O       -1.40060000      -2.01810000       0.04360000
C       -2.65410000      -2.65000000      -0.10130000
C       -2.45220000      -4.15090000       0.08130000
C       -1.91930000      -4.51760000       1.47860000
C       -3.71850000      -4.92490000      -0.21270000
O       -4.76970000      -4.43770000      -0.54500000
H        0.97740000       1.87390000       0.05310000
H       -0.40350000       1.80590000      -1.04730000
H       -0.66690000       1.96450000       0.69360000
H        0.58940000      -0.49810000      -0.68150000
H        0.32630000      -0.34050000       1.04880000
H       -2.14410000      -0.18700000       0.66660000
H       -1.87830000      -0.34360000      -1.07870000
H       -3.37290000      -2.27260000       0.64470000
H       -3.08670000      -2.44330000      -1.09180000
H       -1.70830000      -4.49110000      -0.65640000
H       -1.74710000      -5.59460000       1.57050000
H       -0.97710000      -3.99710000       1.65800000
H       -2.62920000      -4.21900000       2.25760000
H       -3.61470000      -6.02860000      -0.08900000
