18
Properties=species:S:1:pos:R:3 gdb_13945=T pbc="F F F"
O        0.06660000       1.24330000      -0.41100000
C        0.07750000      -0.07870000       0.06720000
C       -0.01020000      -0.31510000       1.59100000
O       -1.18540000      -1.13220000       1.41900000
C       -1.29770000      -0.78240000       0.02720000
C       -2.53060000       0.00930000      -0.46580000
C       -2.50700000      -0.85630000      -1.75620000
C       -1.60880000      -1.88070000      -1.00650000
H        0.96970000       1.57390000      -0.42460000
H        0.86390000      -0.67470000      -0.41450000
H        0.80860000      -0.86440000       2.06960000
H       -0.21950000       0.60500000       2.15210000
H       -3.39100000      -0.22140000       0.16870000
H       -2.42320000       1.09020000      -0.56370000
H       -3.46460000      -1.21790000      -2.13510000
H       -1.97330000      -0.35910000      -2.56980000
H       -0.76520000      -2.33100000      -1.53770000
H       -2.19850000      -2.67500000      -0.53960000
