17
Properties=species:S:1:pos:R:3 gdb_84318=T pbc="F F F"
O       -0.23240000       1.48490000       0.40720000
C       -0.00340000       0.12410000       0.03890000
C        0.92880000      -0.55640000       1.01410000
C        0.78140000      -1.80730000       1.45860000
C       -0.35240000      -2.66930000       1.04140000
O       -0.32640000      -3.87490000       1.19920000
C       -1.51690000      -1.97560000       0.41970000
C       -2.14830000      -0.81120000       1.17320000
C       -1.35640000      -0.54460000      -0.06560000
H        0.59570000       1.96670000       0.30920000
H        0.47620000       0.08830000      -0.95480000
H        1.78920000       0.03510000       1.32450000
H        1.50990000      -2.27330000       2.11460000
H       -2.18290000      -2.63810000      -0.12030000
H       -3.22690000      -0.72330000       1.12090000
H       -1.71380000      -0.53470000       2.12670000
H       -1.91590000      -0.27290000      -0.95400000
