17
Properties=species:S:1:pos:R:3 gdb_57153=T pbc="F F F"
O       -0.32430000       1.36180000       0.03400000
C       -0.12300000      -0.04590000       0.03040000
C        0.61300000      -0.49000000      -1.15640000
C        1.24420000      -0.85870000      -2.11920000
C        1.99380000      -1.26470000      -3.28000000
O        2.16690000      -2.41370000      -3.61550000
C        0.55540000      -0.55900000       1.30270000
C        1.61590000       0.25230000       1.99730000
C        0.25090000       0.09160000       2.62310000
H        0.51100000       1.78060000      -0.19980000
H       -1.13330000      -0.47350000      -0.01550000
H        2.41470000      -0.42060000      -3.86360000
H        0.69090000      -1.63630000       1.29920000
H        2.45890000      -0.27490000       2.42840000
H        1.86210000       1.23160000       1.60070000
H       -0.39830000       0.95920000       2.60590000
H        0.14700000      -0.54450000       3.49460000
