21
Properties=species:S:1:pos:R:3 gdb_120758=T pbc="F F F"
C       -0.17270000       1.47740000       0.46470000
C       -0.25600000      -0.04810000       0.37650000
C       -1.50360000      -0.53300000      -0.37680000
C       -1.55270000      -2.03790000      -0.46750000
O       -1.95570000      -2.76400000       0.70890000
C       -2.77500000      -2.86330000      -0.45000000
C       -4.18470000      -2.36050000      -0.35810000
C       -4.92270000      -2.40700000       0.91350000
O       -4.45490000      -1.16940000       0.37200000
H        0.72080000       1.79670000       1.01020000
H       -0.13500000       1.93150000      -0.53200000
H       -1.04560000       1.89050000       0.98200000
H        0.64470000      -0.43850000      -0.11630000
H       -0.26520000      -0.47940000       1.38450000
H       -2.40810000      -0.17120000       0.11550000
H       -1.49930000      -0.12490000      -1.39730000
H       -0.68510000      -2.48820000      -0.95820000
H       -2.72640000      -3.83270000      -0.95550000
H       -4.74880000      -2.45830000      -1.28740000
H       -6.00310000      -2.53930000       0.91020000
H       -4.39780000      -2.74360000       1.80450000
