16
Properties=species:S:1:pos:R:3 gdb_52665=T pbc="F F F"
C        0.92460000       0.85000000       0.65580000
C        0.35140000      -0.43820000       0.29480000
C       -0.13510000      -1.50910000       0.03200000
C       -0.70040000      -2.80620000      -0.35730000
O       -1.94840000      -2.69030000      -1.01000000
C        0.28670000      -3.54150000      -1.31020000
O        0.49490000      -2.77460000      -2.47860000
C        1.55080000      -3.88310000      -0.63310000
N        2.54010000      -4.13990000      -0.09440000
H        2.00910000       0.77410000       0.78650000
H        0.73080000       1.60150000      -0.11690000
H        0.49850000       1.21800000       1.59490000
H       -0.87380000      -3.42920000       0.52650000
H       -1.77670000      -2.24480000      -1.85010000
H       -0.20190000      -4.46480000      -1.63530000
H        0.90560000      -1.94310000      -2.20170000
