17
Properties=species:S:1:pos:R:3 gdb_87272=T pbc="F F F"
C       -0.19170000       1.62070000       0.29890000
C       -0.15780000       0.11180000       0.26140000
N        0.91750000      -0.54880000      -0.43680000
C        0.84840000      -0.74500000       1.02880000
C        1.93550000      -0.06890000       1.78480000
O        2.22780000      -0.28380000       2.94190000
C        0.27960000      -2.08530000       1.46750000
N        0.49290000      -2.42780000       2.75430000
O       -0.34240000      -2.76540000       0.66460000
H        0.81000000       2.05300000       0.26350000
H       -0.74510000       1.99160000      -0.57030000
H       -0.70190000       1.97950000       1.19830000
H       -1.13250000      -0.37180000       0.21340000
H        0.56890000      -1.41900000      -0.84400000
H        2.48980000       0.67950000       1.18650000
H        1.09320000      -1.85410000       3.33220000
H        0.17040000      -3.32990000       3.06410000
