19
Properties=species:S:1:pos:R:3 gdb_65965=T pbc="F F F"
C       -0.39030000       1.65220000       0.35510000
C       -0.04240000       0.18270000       0.13070000
C        1.12700000      -0.17910000      -0.83050000
C        1.68750000      -1.18380000       0.22070000
C        0.75270000      -0.55030000       1.24720000
C        1.03330000      -0.09460000       2.60950000
O        0.17070000      -1.21430000       2.35350000
C       -1.30510000      -0.60940000      -0.17020000
O       -1.44040000      -1.37880000      -1.08650000
H        0.49510000       2.21560000       0.66340000
H       -0.77860000       2.10830000      -0.56200000
H       -1.15350000       1.76840000       1.13340000
H        0.81250000      -0.60880000      -1.78140000
H        1.79100000       0.67000000      -1.00540000
H        1.39940000      -2.21490000       0.00050000
H        2.75730000      -1.14870000       0.43640000
H        1.99010000      -0.34110000       3.06860000
H        0.54080000       0.79080000       3.00860000
H       -2.13090000      -0.42960000       0.55350000
