17
Properties=species:S:1:pos:R:3 gdb_115093=T pbc="F F F"
O       -0.05550000       1.52250000      -0.18400000
C        0.05300000       0.12890000      -0.03050000
C       -1.33060000      -0.56960000       0.02910000
C       -1.25690000      -2.10800000      -0.05980000
N       -1.01460000      -2.81850000       1.19370000
C       -1.43170000      -2.26100000       2.24960000
N       -2.04330000      -1.00450000       2.32400000
C       -2.00890000      -0.08560000       1.29620000
O       -2.40860000       1.05480000       1.45060000
H       -0.76400000       1.82620000       0.40150000
H        0.59280000      -0.25250000      -0.90460000
H        0.64390000      -0.14450000       0.86050000
H       -1.90680000      -0.17650000      -0.81410000
H       -2.19970000      -2.49510000      -0.47070000
H       -0.47740000      -2.39610000      -0.77320000
H       -1.33200000      -2.75870000       3.21320000
H       -2.36410000      -0.65450000       3.21640000
