19
Properties=species:S:1:pos:R:3 gdb_40253=T pbc="F F F"
C        0.12200000       1.46370000      -0.03360000
O        1.23260000       0.56160000      -0.06060000
C       -0.09640000       0.01300000       0.01220000
C       -0.45410000      -0.70010000       1.29970000
C        0.03570000      -2.15460000       1.24250000
C       -0.63330000      -2.94900000       0.10580000
C       -0.75750000      -2.16210000      -1.18870000
O       -1.83570000      -1.21500000      -1.25400000
C       -0.49830000      -0.71100000      -1.23800000
H        0.01700000       2.04760000       0.88020000
H       -0.05760000       2.01280000      -0.95730000
H        0.00660000      -0.16780000       2.13690000
H       -1.54120000      -0.66930000       1.43600000
H        1.12160000      -2.14460000       1.08990000
H       -0.14370000      -2.65500000       2.19930000
H       -0.06820000      -3.86710000      -0.08750000
H       -1.64300000      -3.26040000       0.40070000
H       -0.63030000      -2.72790000      -2.11160000
H       -0.15660000      -0.25370000      -2.16670000
