19
Properties=species:S:1:pos:R:3 gdb_36852=T pbc="F F F"
C        0.00760000       1.52730000      -0.68590000
C       -0.02970000       0.01910000      -0.54810000
C       -0.66060000      -0.64480000       0.59800000
O       -1.31170000      -0.59730000      -0.67440000
C        1.30240000       2.09940000      -0.19500000
C        1.66070000       2.47920000       1.20990000
C        1.81690000       3.49420000       0.09070000
C        3.00710000       3.09140000      -0.76920000
O        2.49310000       1.73950000      -0.91760000
H       -0.13080000       1.79190000      -1.74150000
H       -0.82580000       1.96230000      -0.12440000
H        0.77320000      -0.50830000      -1.06350000
H       -0.31970000      -1.62970000       0.91350000
H       -1.12100000      -0.04190000       1.38020000
H        0.82350000       2.67020000       1.87440000
H        2.53520000       2.03990000       1.68280000
H        1.31320000       4.45140000       0.08160000
H        3.04320000       3.59610000      -1.74120000
H        4.00090000       3.11040000      -0.30580000
