24
Properties=species:S:1:pos:R:3 gdb_102375=T pbc="F F F"
C       -0.15120000       1.52650000       0.15130000
C       -0.06210000       0.00950000      -0.03150000
C        0.74560000      -0.47940000      -1.26940000
C        2.20750000       0.06050000      -1.28090000
C        3.07150000      -0.36980000      -0.09180000
C        0.68250000      -2.03440000      -1.31200000
C        1.38840000      -2.69930000      -2.49620000
C        0.08270000       0.03750000      -2.48010000
N       -0.43760000       0.44310000      -3.43010000
H        0.82500000       1.97510000       0.35860000
H       -0.56350000       2.01040000      -0.73950000
H       -0.80610000       1.76560000       0.99440000
H        0.38400000      -0.44920000       0.85780000
H       -1.07350000      -0.40430000      -0.11280000
H        2.68390000      -0.25880000      -2.21280000
H        2.16960000       1.15300000      -1.32830000
H        2.66290000      -0.02410000       0.86240000
H        3.18430000      -1.45640000      -0.03460000
H        4.07420000       0.05690000      -0.19040000
H        1.09790000      -2.40910000      -0.37010000
H       -0.37490000      -2.32190000      -1.31430000
H        1.01240000      -2.31510000      -3.44950000
H        2.47100000      -2.54280000      -2.47190000
H        1.21410000      -3.77920000      -2.47940000
