18
Properties=species:S:1:pos:R:3 gdb_69397=T pbc="F F F"
C       -0.02320000       1.53980000       0.04500000
C        0.02940000       0.03040000      -0.00250000
C       -0.84020000      -0.80830000       0.92440000
C        0.65960000      -0.84300000       1.08200000
N        1.38260000      -1.88380000       0.38910000
C        2.18200000      -2.82780000       0.97230000
O        2.78160000      -3.69200000       0.37050000
C        1.17330000      -1.74580000      -0.99310000
C        0.43100000      -0.66530000      -1.26550000
H        0.91990000       1.98150000      -0.29350000
H       -0.82350000       1.92140000      -0.59900000
H       -0.22010000       1.89740000       1.06030000
H       -1.37970000      -0.27870000       1.70290000
H       -1.34580000      -1.67880000       0.52190000
H        1.13100000      -0.44700000       1.97380000
H        2.21700000      -2.70960000       2.07230000
H        1.60060000      -2.49170000      -1.64520000
H        0.15560000      -0.32810000      -2.25470000
