23
Properties=species:S:1:pos:R:3 gdb_70147=T pbc="F F F"
C        0.64270000       1.55280000      -0.03350000
C        0.10350000       0.13120000       0.00770000
C       -1.02410000      -0.12270000       0.97480000
C        0.38360000      -0.63400000       1.28590000
C        0.68060000      -2.07870000       1.43990000
C        0.76420000      -3.06710000       0.54610000
C        0.57890000      -3.02680000      -0.94770000
C       -0.37830000      -1.96320000      -1.50130000
C        0.11340000      -0.51960000      -1.36990000
H        1.68200000       1.57190000      -0.38230000
H        0.05200000       2.17650000      -0.71520000
H        0.61330000       2.02180000       0.95480000
H       -1.41050000       0.71170000       1.55190000
H       -1.76430000      -0.87600000       0.73070000
H        0.89560000      -0.04100000       2.04100000
H        0.86350000      -2.35600000       2.47780000
H        1.01350000      -4.05140000       0.93920000
H        1.56110000      -2.90440000      -1.43220000
H        0.22630000      -4.01440000      -1.27130000
H       -0.52620000      -2.16660000      -2.56880000
H       -1.36400000      -2.07750000      -1.03500000
H       -0.49500000       0.11500000      -2.02950000
H        1.13690000      -0.46410000      -1.76940000
