21
Properties=species:S:1:pos:R:3 gdb_89416=T pbc="F F F"
C        0.00480000       1.57600000      -0.02800000
C        0.07870000       0.05160000       0.02050000
C        0.77930000      -0.61110000      -1.19090000
C        1.23830000      -1.98010000      -0.67290000
O        0.75350000      -3.12830000      -1.30710000
C        2.54400000      -2.03410000       0.06750000
C        1.23560000      -1.92670000       0.83350000
C        0.79680000      -0.53380000       1.27230000
O        1.94420000       0.21810000       1.66580000
H        1.00700000       2.01610000      -0.06450000
H       -0.53650000       1.91620000      -0.91640000
H       -0.51800000       1.98430000       0.84580000
H       -0.94260000      -0.35030000       0.05670000
H        0.09530000      -0.73980000      -2.03410000
H        1.62310000      -0.00290000      -1.53830000
H        1.30650000      -3.29700000      -2.07750000
H        3.03430000      -3.00080000       0.11630000
H        3.20400000      -1.17480000       0.05700000
H        0.92030000      -2.78800000       1.40960000
H        0.09610000      -0.59930000       2.11680000
H        1.64140000       1.08170000       1.96310000
