17
Properties=species:S:1:pos:R:3 gdb_36758=T pbc="F F F"
C       -0.08590000      -1.23220000      -0.00430000
C       -0.07190000      -0.03050000       0.00250000
C       -0.02070000       1.42570000       0.01050000
C        1.42120000       1.97000000      -0.00080000
C        1.44680000       3.51260000       0.00790000
C        2.79460000       4.05780000      -0.00230000
C        3.92350000       4.49430000      -0.01120000
C        5.19260000       4.98500000      -0.02140000
C        6.31880000       5.42090000      -0.03050000
H       -0.10950000      -2.29370000      -0.01040000
H       -0.56660000       1.81580000      -0.85910000
H       -0.54910000       1.80560000       0.89520000
H        1.96360000       1.58980000       0.86980000
H        1.94600000       1.60000000      -0.88640000
H        0.89390000       3.89390000      -0.86180000
H        0.91140000       3.88370000       0.89290000
H        7.30910000       5.80320000      -0.03840000
