17
Properties=species:S:1:pos:R:3 gdb_15882=T pbc="F F F"
C       -0.08330000       1.56570000      -0.21590000
C        0.00140000       0.06040000      -0.00360000
N        1.08760000      -0.62050000      -0.73620000
C        1.73960000      -1.08020000       0.37440000
O        2.78590000      -1.65840000       0.55050000
C        0.66390000      -0.49340000       1.30750000
C        1.26860000       0.42320000       2.37180000
O        2.07930000      -0.33880000       3.24390000
H        0.88120000       2.05290000      -0.05150000
H       -0.40620000       1.79130000      -1.23780000
H       -0.81750000       2.00650000       0.46610000
H       -0.97520000      -0.39710000      -0.19940000
H        1.34040000      -0.63050000      -1.71410000
H        0.06850000      -1.26910000       1.79580000
H        1.84160000       1.23560000       1.89820000
H        0.48870000       0.88740000       2.98510000
H        2.69170000      -0.84320000       2.68970000
