18
Properties=species:S:1:pos:R:3 gdb_86373=T pbc="F F F"
O        0.26030000       1.52560000       0.15200000
C        0.28360000       0.11060000       0.10440000
C        0.24740000      -0.56720000       1.50160000
C       -1.29330000      -0.61170000       1.39790000
O       -1.80840000       0.59400000       1.95210000
C       -1.13230000      -0.49460000      -0.15420000
N       -2.03720000       0.35180000      -0.88300000
C       -3.06420000      -0.13120000      -1.63810000
O       -3.42200000      -1.28890000      -1.65950000
H       -0.30400000       1.76110000       0.90290000
H        1.07990000      -0.16670000      -0.58920000
H        0.68930000      -1.56630000       1.48920000
H        0.65810000       0.00690000       2.33460000
H       -1.82270000      -1.48660000       1.79050000
H       -2.66420000       0.75360000       1.53440000
H       -1.09530000      -1.48360000      -0.61620000
H       -1.72480000       1.30430000      -1.01760000
H       -3.55430000       0.66750000      -2.22940000
