17
Properties=species:S:1:pos:R:3 gdb_31747=T pbc="F F F"
C        0.04240000       1.39580000       0.01520000
O        0.00460000      -0.02520000       0.02020000
C        0.61630000      -0.62560000       1.06150000
C        0.70990000      -1.98420000       1.25080000
N        1.41050000      -2.10980000       2.43840000
C        1.70130000      -0.86700000       2.88160000
C        2.43090000      -0.63550000       4.16560000
O        3.04650000      -1.86420000       4.53480000
N        1.23150000       0.06360000       2.06900000
H        1.07220000       1.76790000      -0.01100000
H       -0.48870000       1.70460000      -0.88710000
H       -0.45060000       1.81190000       0.90030000
H        0.37180000      -2.82680000       0.67530000
H        1.71110000      -2.95510000       2.89390000
H        3.16570000       0.16940000       4.02190000
H        1.72700000      -0.29800000       4.94290000
H        3.34360000      -1.79140000       5.44550000
