13
Properties=species:S:1:pos:R:3 gdb_129197=T pbc="F F F"
N       -0.03910000       1.34400000       0.01070000
C       -0.00850000       0.06290000       0.00330000
N        1.14730000      -0.73510000      -0.00730000
N        1.22820000      -2.07480000      -0.01540000
C        0.11630000      -2.73680000      -0.01330000
C       -1.17460000      -2.08060000      -0.00270000
C       -1.22930000      -0.72470000       0.00530000
C       -2.35960000      -2.88030000      -0.00100000
N       -3.30370000      -3.54940000       0.00020000
H        0.89650000       1.75310000       0.00810000
H        2.04700000      -0.27640000      -0.00950000
H        0.19130000      -3.81680000      -0.01980000
H       -2.16290000      -0.17740000       0.01330000
