19
Properties=species:S:1:pos:R:3 gdb_96896=T pbc="F F F"
C        0.01030000       1.41650000      -0.13520000
N       -0.09900000      -0.03600000      -0.14410000
C        0.56880000      -0.69220000      -0.97240000
O        1.43560000      -0.26360000      -1.98920000
C        1.50010000      -1.62310000      -2.52050000
C        1.42820000      -1.79790000      -3.99710000
C        2.15200000      -2.48370000      -1.49430000
C        0.66420000      -2.13850000      -1.35260000
N       -0.31800000      -3.15630000      -1.28780000
H        0.59080000       1.82430000      -0.97080000
H       -0.99500000       1.85070000      -0.15550000
H        0.47690000       1.73690000       0.80340000
H        2.34670000      -1.45050000      -4.48240000
H        1.29440000      -2.85670000      -4.23600000
H        0.58630000      -1.23650000      -4.41340000
H        2.31000000      -3.51810000      -1.78490000
H        2.88760000      -2.06560000      -0.81420000
H       -0.31530000      -3.60450000      -0.37650000
H       -1.24550000      -2.76670000      -1.42530000
