16
Properties=species:S:1:pos:R:3 gdb_24446=T pbc="F F F"
C       -0.00010000       1.41550000       0.05830000
C        1.45370000       1.93330000      -0.00450000
O        2.22600000       1.47870000       1.12110000
C        1.96400000       0.16600000       1.32390000
C        0.94150000      -0.59340000       0.82800000
N       -0.10980000      -0.04510000       0.06590000
N        1.06290000      -1.89270000       1.25650000
C        2.14440000      -1.91100000       2.00240000
N        2.73700000      -0.67310000       2.08740000
H       -0.45880000       1.80470000       0.97600000
H       -0.56070000       1.82020000      -0.78880000
H        1.93730000       1.58780000      -0.92850000
H        1.48550000       3.02450000       0.03120000
H       -0.16110000      -0.43850000      -0.86730000
H        2.54960000      -2.77170000       2.51100000
H        3.55550000      -0.41700000       2.61270000
