22
Properties=species:S:1:pos:R:3 gdb_110390=T pbc="F F F"
C       -0.23300000       1.64490000       0.09670000
C        0.13960000       0.17460000      -0.12590000
C        0.82420000      -0.45350000       1.08200000
C       -0.01950000      -0.84950000       2.31590000
C       -0.49600000      -2.19110000       1.67580000
C        0.98050000      -1.98880000       1.15290000
C        0.97810000      -1.97280000       2.72740000
N       -0.12860000      -2.96220000       2.90270000
C        0.22500000      -4.36230000       2.69370000
H        0.65360000       2.24610000       0.32740000
H       -0.70540000       2.07620000      -0.79130000
H       -0.93210000       1.75460000       0.93270000
H       -0.76130000      -0.39850000      -0.37980000
H        0.80590000       0.09520000      -0.99530000
H        1.74010000       0.09840000       1.33310000
H       -0.59890000      -0.23760000       3.00710000
H       -1.40360000      -2.39130000       1.10430000
H        1.55250000      -2.63760000       0.48880000
H        1.83160000      -1.89770000       3.40420000
H        0.73780000      -4.74060000       3.58450000
H       -0.69130000      -4.94860000       2.56510000
H        0.87410000      -4.54740000       1.82090000
