18
Properties=species:S:1:pos:R:3 gdb_96897=T pbc="F F F"
C        0.02030000       1.42920000      -0.11270000
N       -0.09320000      -0.02280000      -0.12260000
C        0.54130000      -0.67880000      -0.97370000
O        1.39520000      -0.26090000      -2.00710000
C        1.46740000      -1.63010000      -2.51580000
C        1.39800000      -1.82550000      -3.99030000
C        2.15010000      -2.46410000      -1.47560000
C        0.65510000      -2.12640000      -1.34440000
O       -0.33950000      -3.07040000      -1.30860000
H        0.60310000       1.83690000      -0.94660000
H       -0.98430000       1.86460000      -0.13470000
H        0.48510000       1.74560000       0.82780000
H        2.30060000      -1.44120000      -4.47710000
H        1.31200000      -2.89070000      -4.22150000
H        0.53100000      -1.30590000      -4.40830000
H        2.31680000      -3.50100000      -1.75440000
H        2.89190000      -2.02370000      -0.81630000
H       -0.37690000      -3.44070000      -0.41930000
