20
Properties=species:S:1:pos:R:3 gdb_83165=T pbc="F F F"
C       -0.23620000       1.57560000      -0.08300000
C       -0.01640000       0.07870000       0.01760000
C        1.28340000      -0.65730000      -0.23340000
C        2.62250000       0.02700000      -0.38760000
O        2.83350000       1.15630000       0.46950000
C        2.37220000       1.17640000       1.75340000
N        2.66160000       2.13540000       2.52970000
C        1.49500000       0.03970000       2.22580000
C        0.68260000      -0.65310000       1.14800000
H        0.58970000       2.16860000       0.30730000
H       -0.38430000       1.86660000      -1.12910000
H       -1.14020000       1.86050000       0.46610000
H       -0.87310000      -0.47860000      -0.35660000
H        1.22650000      -1.57000000      -0.82100000
H        3.42340000      -0.70550000      -0.20920000
H        2.75980000       0.42140000      -1.39950000
H        3.28390000       2.79200000       2.05330000
H        2.15320000      -0.71090000       2.68560000
H        0.87330000       0.43430000       3.03310000
H        0.20160000      -1.56330000       1.49430000
