25
Properties=species:S:1:pos:R:3 gdb_103650=T pbc="F F F"
C       -0.06300000       1.55700000       0.22390000
C       -0.01600000       0.04180000      -0.00390000
C        0.71690000      -0.43510000      -1.27990000
C        2.17050000       0.08610000      -1.30810000
C        0.68680000      -1.99200000      -1.37980000
C        0.43230000      -2.34900000      -2.86840000
C       -0.46880000      -3.57330000      -3.06890000
C       -0.13960000      -1.05700000      -3.40990000
C        0.00010000      -0.04150000      -2.56170000
H        0.93610000       1.98230000       0.35740000
H       -0.53870000       2.08000000      -0.61240000
H       -0.64010000       1.79040000       1.12430000
H        0.46200000      -0.43460000       0.86320000
H       -1.04170000      -0.34610000      -0.03740000
H        2.69510000      -0.16790000      -0.37920000
H        2.72330000      -0.35780000      -2.14200000
H        2.21250000       1.17280000      -1.43040000
H        1.60030000      -2.44770000      -0.98570000
H       -0.14690000      -2.37530000      -0.77940000
H        1.38730000      -2.55500000      -3.37600000
H       -1.44600000      -3.41940000      -2.59790000
H       -0.63680000      -3.77400000      -4.13270000
H       -0.01950000      -4.46980000      -2.62830000
H       -0.58290000      -0.99090000      -4.39900000
H       -0.30450000       0.98100000      -2.76080000
