11
Properties=species:S:1:pos:R:3 gdb_132136=T pbc="F F F"
O       -0.30870000       1.51310000       0.00980000
C        0.04530000       0.21640000       0.00160000
C       -1.11520000      -0.68420000       0.00320000
F       -2.31650000      -0.09740000       0.01230000
C       -1.06770000      -2.02970000      -0.00370000
N        0.02790000      -2.84250000      -0.01340000
C        1.24170000      -2.78200000      -0.01940000
O        2.39400000      -2.93960000      -0.02620000
O        1.19690000      -0.16360000      -0.00620000
H        0.51870000       2.01770000       0.00800000
H       -2.01760000      -2.55500000      -0.00140000
