19
Properties=species:S:1:pos:R:3 gdb_115083=T pbc="F F F"
C       -0.00910000       1.52640000       0.03330000
C       -0.07380000      -0.00400000       0.01100000
N       -1.43540000      -0.53110000       0.01390000
C       -2.08570000      -0.68070000       1.31830000
C       -3.43970000      -1.31560000       1.20870000
C       -3.99620000      -1.53250000       0.01880000
N       -3.34620000      -1.18940000      -1.15720000
C       -2.04210000      -0.71170000      -1.20330000
O       -1.49570000      -0.49010000      -2.27220000
H        1.03290000       1.86090000       0.06040000
H       -0.47680000       1.93290000      -0.86700000
H       -0.51680000       1.94330000       0.90910000
H        0.41990000      -0.37920000      -0.88670000
H        0.44150000      -0.42230000       0.88390000
H       -1.42890000      -1.28740000       1.96260000
H       -2.15980000       0.30170000       1.81750000
H       -3.95840000      -1.58010000       2.12030000
H       -4.97550000      -1.97910000      -0.10560000
H       -3.75190000      -1.37320000      -2.05840000
