20
Properties=species:S:1:pos:R:3 gdb_56265=T pbc="F F F"
N       -0.04570000       1.14460000      -0.56970000
C        0.11880000      -0.12810000      -0.10340000
O        1.21740000      -0.60350000       0.10970000
C       -1.17810000      -0.89000000       0.16990000
C       -1.02270000      -2.39310000      -0.07400000
C       -2.22860000      -3.20710000       0.40950000
C       -2.06730000      -4.68180000       0.13290000
C       -3.20010000      -5.55190000      -0.20290000
O       -2.29620000      -5.10640000      -1.21550000
H        0.77740000       1.68940000      -0.76830000
H       -0.94510000       1.51740000      -0.81550000
H       -1.43530000      -0.70960000       1.22310000
H       -2.00430000      -0.47870000      -0.42290000
H       -0.87030000      -2.57910000      -1.14340000
H       -0.10950000      -2.72550000       0.43000000
H       -2.36740000      -3.06150000       1.48990000
H       -3.14620000      -2.85820000      -0.08050000
H       -1.19330000      -5.14820000       0.59300000
H       -3.15850000      -6.61550000       0.02860000
H       -4.20330000      -5.12910000      -0.25340000
