16
Properties=species:S:1:pos:R:3 gdb_17727=T pbc="F F F"
C       -0.01190000       1.56570000      -0.00130000
C        1.55220000       1.81190000      -0.09710000
C        1.90440000       0.34490000      -0.07130000
O        2.99790000      -0.60730000      -0.10340000
C        1.73660000      -1.42090000      -0.00700000
C        1.04560000      -0.43490000       0.96390000
C       -0.12210000       0.00230000       0.05350000
C        0.93750000      -0.49450000      -0.95340000
H       -0.43590000       2.03170000       0.89290000
H       -0.53530000       1.97690000      -0.86930000
H        1.84220000       2.32040000      -1.01990000
H        1.94220000       2.37560000       0.75410000
H        1.87200000      -2.50080000       0.01890000
H        1.15860000      -0.37340000       2.04590000
H       -1.12430000      -0.42060000       0.12320000
H        0.92810000      -0.50060000      -2.04290000
