17
Properties=species:S:1:pos:R:3 gdb_22390=T pbc="F F F"
O       -0.05880000       1.23870000      -0.01770000
N        0.00400000      -0.16610000       0.01090000
C       -1.14470000      -0.69420000       0.02690000
C       -2.57930000      -0.19940000       0.02300000
N       -3.31370000      -1.50730000       0.05300000
C       -2.51760000      -2.29580000      -0.96870000
C       -1.34010000      -2.18600000       0.05830000
O       -0.22200000      -2.98740000       0.07000000
C       -2.50850000      -2.25350000       1.09910000
H        0.87160000       1.48870000      -0.02690000
H       -2.82670000       0.40640000       0.89890000
H       -2.83450000       0.37010000      -0.87470000
H       -2.91260000      -3.30940000      -1.05820000
H       -2.41970000      -1.82690000      -1.95130000
H        0.54960000      -2.40380000       0.05390000
H       -2.40220000      -1.74480000       2.06080000
H       -2.90260000      -3.26250000       1.23340000
