17
Properties=species:S:1:pos:R:3 gdb_83494=T pbc="F F F"
O       -0.06030000       1.40500000      -0.04270000
C        0.00100000      -0.00230000       0.01850000
C        0.34480000      -0.60920000       1.40370000
C       -0.75280000      -0.02510000       2.30610000
C       -1.96350000      -0.05000000       1.35040000
O       -3.09670000       0.25830000       1.59840000
C       -1.41480000      -0.60180000       0.02500000
C       -1.05790000      -2.07660000       0.31970000
O        0.08900000      -2.00170000       1.19350000
H        0.83640000       1.75230000      -0.00200000
H        0.63480000      -0.42590000      -0.77090000
H        1.37030000      -0.49600000       1.75810000
H       -0.93440000      -0.62550000       3.20040000
H       -0.54760000       1.00570000       2.60840000
H       -2.05390000      -0.43710000      -0.83980000
H       -1.86940000      -2.62250000       0.81360000
H       -0.78490000      -2.61430000      -0.59630000
