17
Properties=species:S:1:pos:R:3 gdb_15999=T pbc="F F F"
O       -0.04890000       1.43210000      -0.37160000
C        0.09360000       0.05320000      -0.09700000
C       -1.25350000      -0.55340000       0.26340000
O       -2.18920000      -0.34930000      -0.83030000
C       -2.39520000      -1.77450000      -1.00380000
C       -1.43490000      -2.06680000       0.14230000
C       -0.46020000      -3.15410000       0.36340000
N       -1.67970000      -3.03970000       1.19180000
H       -0.75540000       1.49750000      -1.02640000
H        0.51810000      -0.49200000      -0.95520000
H        0.79430000      -0.03850000       0.74090000
H       -1.63830000      -0.10620000       1.19090000
H       -3.43470000      -2.06660000      -0.81690000
H       -2.08830000      -2.11520000      -1.99980000
H       -0.43990000      -4.01380000      -0.30130000
H        0.50100000      -2.90230000       0.80520000
H       -1.45620000      -2.64890000       2.10460000
