17
Properties=species:S:1:pos:R:3 gdb_56771=T pbc="F F F"
N       -0.29450000       1.58740000      -0.10740000
C       -0.04250000       0.14000000      -0.05730000
C       -1.31300000      -0.56020000       0.20210000
N       -2.30300000      -1.13280000       0.36480000
C        0.63710000      -0.45020000      -1.27610000
C       -0.06210000      -0.83720000      -2.56730000
C        0.75880000      -1.85220000      -1.83410000
O        2.14750000      -1.69990000      -2.13240000
C        2.14190000      -0.37410000      -1.54470000
H        0.59490000       2.07450000      -0.16830000
H       -0.80780000       1.81060000      -0.95630000
H        0.59710000      -0.03810000       0.81790000
H       -1.13670000      -0.96650000      -2.47810000
H        0.28770000      -0.45570000      -3.52270000
H        0.40800000      -2.81580000      -1.48430000
H        2.50310000       0.39380000      -2.23890000
H        2.74430000      -0.35840000      -0.62750000
