20
Properties=species:S:1:pos:R:3 gdb_41428=T pbc="F F F"
C       -0.02650000       1.56060000      -0.04670000
C        1.50490000       1.86400000      -0.01110000
C        2.00750000       0.44000000       0.11150000
C        3.41010000      -0.13070000       0.06450000
C        3.03730000      -1.64710000       0.07480000
C        1.51130000      -1.53240000       0.11870000
C        1.09430000      -0.39600000       1.06680000
C        0.01520000       0.03390000       0.05930000
N        1.15020000      -0.41610000      -0.87270000
H       -0.57370000       2.01810000       0.78310000
H       -0.49430000       1.88590000      -0.98020000
H        1.86010000       2.34510000      -0.92680000
H        1.80150000       2.48690000       0.83800000
H        3.94160000       0.16590000      -0.84420000
H        4.01360000       0.17080000       0.92580000
H        3.37550000      -2.16570000      -0.82680000
H        3.43710000      -2.18110000       0.94210000
H        0.92080000      -2.44730000       0.03510000
H        1.07010000      -0.37760000       2.16440000
H       -0.92230000      -0.51760000      -0.03800000
