17
Properties=species:S:1:pos:R:3 gdb_26029=T pbc="F F F"
C       -0.83250000       1.56030000      -0.65460000
C       -0.05330000       0.31280000      -0.16370000
C       -0.97110000      -0.67230000       0.41360000
C       -1.75160000      -1.47990000       0.84400000
C        0.78400000      -0.29760000      -1.25870000
C        2.03120000       0.00270000      -1.74630000
N        2.35150000      -0.80700000      -2.81200000
C        1.31230000      -1.59400000      -2.96970000
N        0.33250000      -1.32250000      -2.06170000
H       -0.13240000       2.30190000      -1.04680000
H       -1.52940000       1.28710000      -1.45130000
H       -1.40160000       2.00480000       0.16650000
H        0.63540000       0.64060000       0.62530000
H       -2.42820000      -2.18720000       1.25640000
H        2.71560000       0.75750000      -1.38780000
H        1.21140000      -2.37290000      -3.71060000
H       -0.53310000      -1.81940000      -1.92370000
