23
Properties=species:S:1:pos:R:3 gdb_88963=T pbc="F F F"
C        0.59620000       1.34310000      -0.64140000
C       -0.27360000       0.69290000       0.41150000
C       -0.28120000      -0.78340000       0.60280000
N        0.27830000       0.09570000       1.63020000
C        1.72170000       0.09060000       1.84760000
C        2.08140000      -0.46290000       3.22550000
C        3.56160000      -0.71720000       3.41140000
C        1.24520000      -0.07850000       4.38760000
N        1.19590000      -1.45740000       3.85240000
H        1.48720000       0.75160000      -0.86610000
H        0.02950000       1.46000000      -1.57110000
H        0.92070000       2.34130000      -0.32670000
H       -1.20620000       1.22530000       0.59690000
H       -1.19390000      -1.31230000       0.86590000
H        0.41980000      -1.36280000       0.00240000
H        2.25950000      -0.49400000       1.08280000
H        2.09670000       1.12000000       1.77770000
H        4.13990000       0.20690000       3.29320000
H        3.75640000      -1.12190000       4.40720000
H        3.93090000      -1.44190000       2.67630000
H        1.69690000       0.01750000       5.37150000
H        0.38890000       0.56210000       4.19930000
H        0.34870000      -1.53130000       3.29230000
