16
Properties=species:S:1:pos:R:3 gdb_67917=T pbc="F F F"
C       -0.00570000       1.53630000       0.05320000
C       -0.00920000       0.03610000       0.04190000
C       -1.27310000      -0.84190000      -0.06640000
C       -0.64080000      -1.76180000       1.00970000
O       -1.07210000      -2.64460000       1.68970000
C        0.62730000      -0.95050000       1.05710000
C        1.18950000      -0.77740000      -0.35900000
C        1.14460000      -1.81670000      -1.35720000
N        1.09860000      -2.63550000      -2.17270000
H        0.97950000       1.93210000       0.31790000
H       -0.27210000       1.93270000      -0.93270000
H       -0.73260000       1.92140000       0.77570000
H       -2.16820000      -0.35840000       0.33560000
H       -1.49900000      -1.27570000      -1.04340000
H        1.26930000      -0.78140000       1.91350000
H        2.12480000      -0.22390000      -0.36220000
