18
Properties=species:S:1:pos:R:3 gdb_17710=T pbc="F F F"
C       -0.05020000       1.54350000      -0.26280000
N       -0.01520000       0.09320000      -0.10140000
C       -1.08870000      -0.48510000       0.75670000
C       -0.19010000      -1.67300000       1.18580000
C        0.72770000      -0.40320000       1.09320000
C       -0.43870000      -0.10500000       2.13380000
N       -0.55890000      -1.50970000       2.62130000
C        0.45420000      -1.93060000       3.58400000
H        0.90760000       1.88340000      -0.67050000
H       -0.83070000       1.80690000      -0.98420000
H       -0.24310000       2.10230000       0.66920000
H       -2.14560000      -0.50380000       0.48990000
H       -0.06530000      -2.63530000       0.68890000
H        1.80960000      -0.30210000       1.18920000
H       -0.60890000       0.75360000       2.78480000
H        0.20260000      -1.52750000       4.57060000
H        0.44730000      -3.02300000       3.65980000
H        1.48100000      -1.61140000       3.33550000
