19
Properties=species:S:1:pos:R:3 gdb_68140=T pbc="F F F"
C       -0.13650000       1.49280000      -0.02090000
C        0.03380000       0.00110000      -0.02120000
C        0.79790000      -0.78400000      -1.11400000
C       -0.22690000      -1.84990000      -0.64740000
C        0.24590000      -2.18760000       0.79300000
C        0.44960000      -0.72350000       1.28280000
O       -1.17300000      -0.75480000      -0.39410000
C       -0.70210000      -2.91550000      -1.49000000
C       -1.07260000      -3.82230000      -2.18650000
H        0.81120000       1.98410000       0.22310000
H       -0.47160000       1.84880000      -0.99880000
H       -0.87710000       1.79290000       0.72780000
H        0.56830000      -0.42100000      -2.11580000
H        1.86410000      -0.98900000      -0.98850000
H       -0.53510000      -2.71900000       1.33880000
H        1.15630000      -2.79160000       0.80120000
H        1.47830000      -0.50150000       1.58020000
H       -0.21720000      -0.45850000       2.10640000
H       -1.40650000      -4.61860000      -2.80480000
