21
Properties=species:S:1:pos:R:3 gdb_40669=T pbc="F F F"
C       -0.36890000       1.30540000      -0.42840000
C        1.03840000       1.42340000       0.10330000
C        0.35020000       0.07930000       0.07890000
C       -0.07720000      -0.57940000       1.35200000
C       -0.74700000      -1.93940000       1.33110000
C        0.64280000      -1.79000000       1.87010000
C        1.94370000      -2.41490000       1.37390000
O        2.38240000      -2.62910000       2.73420000
C        1.16530000      -2.06970000       3.27530000
H       -1.17570000       1.70280000       0.17890000
H       -0.52810000       1.40610000      -1.49630000
H        1.84370000       1.60550000      -0.59970000
H        1.17710000       1.90100000       1.06780000
H        0.69440000      -0.61400000      -0.68490000
H       -0.43540000       0.11280000       2.11270000
H       -1.55300000      -2.13330000       2.03240000
H       -0.86790000      -2.42800000       0.36810000
H        1.84440000      -3.35960000       0.82240000
H        2.62130000      -1.74760000       0.82510000
H        1.36080000      -1.19000000       3.90340000
H        0.59860000      -2.80830000       3.85870000
