17
Properties=species:S:1:pos:R:3 gdb_25831=T pbc="F F F"
C        0.02020000       1.51400000       0.00800000
C        0.03290000      -0.00550000       0.00280000
O        1.08320000      -0.61550000      -0.00750000
C       -1.27660000      -0.73500000       0.01070000
C       -2.51220000      -0.07760000       0.02220000
C       -3.69810000      -0.80630000       0.02910000
C       -3.66030000      -2.19850000       0.02450000
C       -2.43330000      -2.86290000       0.01290000
C       -1.25110000      -2.13580000       0.00610000
H        1.04980000       1.87180000       0.00160000
H       -0.50730000       1.90450000      -0.86880000
H       -0.49440000       1.89870000       0.89490000
H       -2.55530000       1.00560000       0.02600000
H       -4.65090000      -0.28770000       0.03800000
H       -4.58530000      -2.76590000       0.02980000
H       -2.40290000      -3.94740000       0.00930000
H       -0.28510000      -2.62710000      -0.00290000
