17
Properties=species:S:1:pos:R:3 gdb_34144=T pbc="F F F"
C       -0.04830000      -1.15760000       0.12060000
C       -0.04350000       0.04450000       0.08430000
C       -0.01400000       1.47100000      -0.00070000
O       -0.62210000       2.29660000       1.06200000
C       -0.08720000       3.25860000       0.08860000
C        1.22240000       2.43630000      -0.07280000
C        1.71750000       2.51520000      -1.51000000
C        0.35570000       2.49770000      -2.27570000
C       -0.61340000       2.41270000      -1.10500000
H       -0.05780000      -2.21890000       0.16170000
H       -0.21960000       4.31890000       0.29990000
H        1.92450000       2.41280000       0.75930000
H        2.29320000       3.42680000      -1.69630000
H        2.35500000       1.66520000      -1.77020000
H        0.19800000       3.39990000      -2.87430000
H        0.26340000       1.63840000      -2.94630000
H       -1.68860000       2.36640000      -1.27220000
