21
Properties=species:S:1:pos:R:3 gdb_63213=T pbc="F F F"
C        0.30340000       1.50670000      -0.25260000
C       -0.01030000       0.01530000      -0.00110000
C       -1.51900000      -0.17690000       0.21090000
C        0.52780000      -0.82410000      -1.14700000
C        1.61190000      -1.52590000      -0.82380000
C        2.01420000      -1.31720000       0.61460000
C        0.82600000      -0.53520000       1.18300000
C        0.81630000       0.03960000       2.53010000
O        0.11650000      -1.17640000       2.25140000
H        1.38090000       1.67820000      -0.33990000
H       -0.16340000       1.84570000      -1.18380000
H       -0.07930000       2.13480000       0.55890000
H       -2.07050000       0.18500000      -0.66370000
H       -1.76690000      -1.22890000       0.36750000
H       -1.87100000       0.38200000       1.08370000
H        0.06370000      -0.80130000      -2.12780000
H        2.17000000      -2.16440000      -1.49940000
H        2.15110000      -2.24920000       1.17430000
H        2.95590000      -0.75650000       0.69380000
H        1.69480000      -0.06050000       3.16770000
H        0.18460000       0.89870000       2.75480000
