21
Properties=species:S:1:pos:R:3 gdb_100147=T pbc="F F F"
C       -0.10620000       1.60290000       0.15900000
C       -0.04490000       0.07950000      -0.03910000
O        0.69930000      -0.52580000       1.01640000
C       -1.46200000      -0.51580000      -0.02280000
O       -1.98350000      -0.29950000       1.28630000
C        0.65780000      -0.31610000      -1.34710000
C        2.12730000       0.13500000      -1.41960000
C        2.86130000      -0.54610000      -2.54900000
O        3.46550000       0.01600000      -3.42580000
H        0.89870000       2.01080000       0.28650000
H       -0.57800000       2.09720000      -0.69720000
H       -0.69000000       1.84000000       1.05210000
H        0.11590000      -0.51780000       1.78590000
H       -2.09180000      -0.03550000      -0.78610000
H       -1.40100000      -1.59020000      -0.24490000
H       -2.76430000      -0.84700000       1.40320000
H        0.61940000      -1.40970000      -1.42900000
H        0.09950000       0.09190000      -2.19780000
H        2.22720000       1.21570000      -1.54440000
H        2.61590000      -0.15610000      -0.48020000
H        2.80580000      -1.66120000      -2.51900000
