14
Properties=species:S:1:pos:R:3 gdb_16849=T pbc="F F F"
O       -0.04190000       0.42490000       1.02520000
C       -0.03080000       1.27590000       0.16050000
C       -1.32560000       1.70770000      -0.53390000
C       -1.28340000       3.07090000      -1.17810000
O       -0.81050000       4.14640000      -0.37670000
C        0.02100000       3.69720000      -1.46930000
C        1.25840000       2.97350000      -1.09220000
C        1.23210000       1.88030000      -0.31900000
H       -1.53570000       0.95660000      -1.30790000
H       -2.14110000       1.63860000       0.19250000
H       -2.13110000       3.32410000      -1.81560000
H        0.09910000       4.41360000      -2.28390000
H        2.20290000       3.37820000      -1.44540000
H        2.14060000       1.38510000       0.00790000
