23
Properties=species:S:1:pos:R:3 gdb_120474=T pbc="F F F"
C       -0.11010000       1.55060000      -0.12580000
C       -0.01640000       0.02820000      -0.04640000
C        1.14270000      -0.57810000      -0.88360000
O        1.57110000       0.22640000      -1.95850000
C        2.00840000      -0.65570000       0.40090000
C        0.69260000      -0.55050000       1.22670000
C        0.68550000       0.23730000       2.53030000
C        1.47710000      -0.44910000       3.63700000
O        1.40440000       0.36570000       4.79800000
H        0.85210000       2.03730000       0.05670000
H       -0.44080000       1.85650000      -1.12210000
H       -0.82840000       1.93370000       0.60600000
H       -1.00120000      -0.40210000      -0.25410000
H        0.87780000      -1.58770000      -1.23080000
H        2.31900000      -0.20720000      -2.38100000
H        2.64590000      -1.53260000       0.54290000
H        2.61680000       0.24870000       0.50290000
H        0.30380000      -1.55850000       1.41720000
H        1.10350000       1.23880000       2.37960000
H       -0.34480000       0.37740000       2.88160000
H        1.05770000      -1.45130000       3.82720000
H        2.52220000      -0.59120000       3.31650000
H        1.92050000      -0.05350000       5.49250000
