19
Properties=species:S:1:pos:R:3 gdb_36510=T pbc="F F F"
C       -0.06900000      -1.23650000      -0.04890000
C       -0.05550000      -0.03450000      -0.03250000
C       -0.00660000       1.42190000      -0.01450000
C        1.43530000       1.98610000       0.03850000
C        1.41250000       3.51550000      -0.08470000
O        2.69080000       4.07300000       0.14870000
C        3.13990000       3.87480000       1.47590000
C        2.89830000       2.47920000       1.98010000
C        2.14540000       1.60730000       1.31420000
H       -0.09420000      -2.29790000      -0.06580000
H       -0.51090000       1.81200000      -0.90860000
H       -0.57300000       1.79750000       0.84790000
H        1.98140000       1.57180000      -0.81980000
H        1.12220000       3.82720000      -1.09270000
H        0.67380000       3.92930000       0.62420000
H        4.21310000       4.10000000       1.46920000
H        2.66760000       4.60720000       2.15750000
H        3.37450000       2.21220000       2.92000000
H        2.00440000       0.59380000       1.67950000
