21
Properties=species:S:1:pos:R:3 gdb_116383=T pbc="F F F"
C        0.12140000       1.53340000      -0.17550000
C        0.03340000       0.03010000       0.10330000
C       -1.40050000      -0.53280000       0.15610000
C       -1.45670000      -2.03940000      -0.14280000
C       -2.88550000      -2.55010000       0.02410000
C       -3.34230000      -2.28580000       1.44870000
O       -3.15380000      -0.92590000       1.87500000
C       -2.11030000      -0.16110000       1.46230000
O       -1.84100000       0.81950000       2.10440000
H        1.16610000       1.85580000      -0.22960000
H       -0.35050000       1.78160000      -1.13370000
H       -0.37730000       2.10140000       0.61070000
H        0.57210000      -0.51490000      -0.68220000
H        0.54150000      -0.20310000       1.04610000
H       -1.99540000      -0.02790000      -0.62180000
H       -1.08510000      -2.22210000      -1.15630000
H       -0.78600000      -2.57980000       0.53940000
H       -3.55170000      -2.04200000      -0.68390000
H       -2.95750000      -3.62470000      -0.17560000
H       -4.40970000      -2.48120000       1.58000000
H       -2.79430000      -2.93210000       2.14750000
