15
Properties=species:S:1:pos:R:3 gdb_34669=T pbc="F F F"
N        0.01130000      -1.15390000      -0.38530000
C       -0.00520000      -0.01850000      -0.17140000
C       -0.01700000       1.40790000       0.10250000
N       -1.11970000       2.01760000       0.02770000
C       -1.26510000       3.45820000       0.12260000
C       -0.48260000       4.17640000       1.21830000
O        0.92270000       4.09790000       1.02120000
C        1.45770000       2.86740000       1.33790000
O        1.24680000       1.84500000       0.35260000
H       -0.97360000       3.88470000      -0.84760000
H       -2.33000000       3.67570000       0.25860000
H       -0.73560000       5.24010000       1.20420000
H       -0.74550000       3.76800000       2.20610000
H        2.54150000       2.97470000       1.37740000
H        1.06020000       2.49470000       2.29490000
