19
Properties=species:S:1:pos:R:3 gdb_38719=T pbc="F F F"
C       -0.02480000       1.49830000       0.12320000
C        1.35570000       0.86410000      -0.02330000
C        2.18150000       0.20090000       1.07960000
C        1.38920000      -1.12380000       1.26290000
O        0.05270000      -0.67660000       1.14850000
C        0.09250000       0.02720000      -0.08990000
C       -0.04360000      -0.97880000      -1.19870000
C        1.24920000      -1.83400000      -1.05870000
O        1.63140000      -2.12250000       0.29300000
H       -0.38550000       1.79880000       1.10130000
H       -0.33210000       2.14130000      -0.69600000
H        1.86340000       1.09170000      -0.95420000
H        3.21420000       0.03200000       0.76370000
H        2.19940000       0.74820000       2.02790000
H        1.52880000      -1.61510000       2.22870000
H       -0.94540000      -1.58380000      -1.06560000
H       -0.06940000      -0.52780000      -2.19580000
H        1.14200000      -2.80920000      -1.54240000
H        2.06700000      -1.29810000      -1.56200000
