17
Properties=species:S:1:pos:R:3 gdb_43926=T pbc="F F F"
N       -0.01920000       1.24100000      -0.47790000
C       -0.00490000       0.06350000      -0.06120000
O        1.09220000      -0.77210000       0.27450000
C        0.17070000      -1.64780000       0.98330000
C       -0.27850000      -3.11160000       1.18010000
C       -1.36440000      -2.29520000       2.04440000
C       -0.19390000      -1.37490000       2.45580000
N       -2.10430000      -1.34370000       1.14600000
C       -0.99720000      -1.07570000       0.21540000
H        0.92530000       1.62120000      -0.56280000
H       -0.60510000      -3.66870000       0.29960000
H        0.34420000      -3.72620000       1.83190000
H       -1.99240000      -2.80730000       2.77040000
H        0.50750000      -1.83330000       3.15430000
H       -0.45460000      -0.35610000       2.74510000
H       -2.87450000      -1.79500000       0.66400000
H       -1.12930000      -1.58380000      -0.74780000
