18
Properties=species:S:1:pos:R:3 gdb_17019=T pbc="F F F"
C       -0.10450000       1.63350000       0.01280000
C        0.03550000       0.11950000       0.01950000
C        1.17880000      -0.61040000      -0.76210000
C        2.17050000      -0.16210000       0.34910000
C        0.88930000      -0.62890000       1.09740000
C        0.89550000      -1.86970000       0.13370000
C       -0.30500000      -2.65700000      -0.06100000
C       -1.27660000      -3.34910000      -0.21930000
H        0.83710000       2.16710000       0.16420000
H       -0.52450000       1.97050000      -0.94150000
H       -0.79500000       1.95330000       0.80120000
H       -0.94520000      -0.33830000      -0.13770000
H        1.34630000      -0.62070000      -1.84050000
H        3.06330000      -0.77950000       0.48190000
H        2.42280000       0.89620000       0.39890000
H        0.72110000      -0.66050000       2.17520000
H        1.76420000      -2.52300000       0.26240000
H       -2.13800000      -3.95370000      -0.35990000
