18
Properties=species:S:1:pos:R:3 gdb_17631=T pbc="F F F"
C        0.05120000       1.51200000      -0.06680000
C       -0.01940000      -0.00720000       0.02800000
O        0.69740000      -0.50850000       1.15550000
C       -1.47720000      -0.52140000       0.06090000
O       -2.22830000      -0.03660000      -1.03490000
C       -1.50960000      -2.04260000       0.09140000
C       -2.70720000      -2.78600000      -0.30520000
O       -1.60070000      -2.64350000      -1.21280000
H        1.09130000       1.84390000      -0.12390000
H       -0.49150000       1.86570000      -0.94580000
H       -0.41030000       1.97440000       0.81640000
H        0.47650000      -0.45370000      -0.84340000
H        0.43310000       0.01070000       1.92320000
H       -1.95210000      -0.13480000       0.97540000
H       -2.07700000      -0.67530000      -1.74790000
H       -0.78500000      -2.50760000       0.75490000
H       -2.86540000      -3.79530000       0.06910000
H       -3.60220000      -2.23650000      -0.58760000
