17
Properties=species:S:1:pos:R:3 gdb_38987=T pbc="F F F"
C       -0.03000000       1.53310000      -0.06200000
C        1.49920000       1.53890000       0.09010000
O        2.04800000       0.76810000      -1.00670000
C        1.55610000       0.07170000       0.12570000
C        2.31740000      -0.96170000       0.89040000
O        1.53630000      -1.33080000       2.02730000
C        0.20510000      -1.62870000       1.68750000
O       -0.51420000      -0.50690000       1.23110000
C        0.02370000      -0.02490000       0.00810000
H       -0.55570000       1.93300000       0.80680000
H       -0.41440000       1.97700000      -0.98230000
H        2.15130000       2.28250000       0.53240000
H        2.50240000      -1.84290000       0.25340000
H        3.27850000      -0.59270000       1.25700000
H        0.18060000      -2.43090000       0.92610000
H       -0.28390000      -1.96190000       2.60410000
H       -0.36970000      -0.58710000      -0.84890000
