21
Properties=species:S:1:pos:R:3 gdb_109580=T pbc="F F F"
C        0.75710000       1.52670000       0.20410000
C        0.10850000       0.15370000       0.05360000
C        0.77870000      -0.80280000      -0.99010000
O        1.63520000      -0.26530000      -1.97060000
C        1.38060000      -1.66080000       0.17040000
C        2.88180000      -1.49620000       0.42170000
O        3.29060000      -2.15450000       1.60460000
C        0.46410000      -0.89330000       1.16190000
O        1.16200000      -0.43320000       2.31260000
H        1.82170000       1.46560000       0.44870000
H        0.64720000       2.10150000      -0.72040000
H        0.28330000       2.09590000       1.01020000
H       -0.96710000       0.28190000      -0.10400000
H        0.02970000      -1.36570000      -1.55230000
H        2.29310000       0.28730000      -1.53710000
H        1.17190000      -2.73220000       0.10750000
H        3.43550000      -1.95180000      -0.40550000
H        3.16530000      -0.43160000       0.45150000
H        2.79680000      -1.73060000       2.31780000
H       -0.40790000      -1.48630000       1.46250000
H        0.53500000      -0.03180000       2.92110000
