20
Properties=species:S:1:pos:R:3 gdb_22493=T pbc="F F F"
C        0.12340000       1.52930000       0.00890000
C        0.00720000       0.00280000       0.00190000
C       -1.44630000      -0.48340000       0.01320000
C       -1.54840000      -2.01020000       0.00610000
C       -2.95590000      -2.56670000       0.01660000
N       -3.94110000      -1.74140000       0.03050000
O       -5.17510000      -2.37910000       0.03890000
C       -3.10150000      -3.98590000       0.01030000
C       -3.15240000      -5.18870000       0.00430000
H        1.16950000       1.85110000       0.00070000
H       -0.36730000       1.96690000      -0.86750000
H       -0.35040000       1.95750000       0.89920000
H        0.51980000      -0.39990000      -0.88210000
H        0.53660000      -0.40920000       0.87150000
H       -1.96470000      -0.08740000       0.89400000
H       -1.98140000      -0.07810000      -0.85320000
H       -1.03240000      -2.42030000      -0.87310000
H       -1.01570000      -2.42960000       0.87080000
H       -5.78990000      -1.63690000       0.04870000
H       -3.22170000      -6.24850000      -0.00080000
