20
Properties=species:S:1:pos:R:3 gdb_54983=T pbc="F F F"
C       -0.29700000       1.49460000      -0.21220000
C       -0.04750000       0.01380000       0.00670000
O        1.00050000      -0.53410000      -0.26140000
N       -1.09770000      -0.66580000       0.61710000
C       -2.47740000      -0.74850000       0.16510000
C       -1.59180000      -1.95800000       0.23930000
C       -1.15010000      -2.83660000      -0.93910000
C       -1.65660000      -4.06850000      -0.13030000
C       -1.73420000      -3.18170000       1.14980000
H        0.65590000       1.99590000      -0.38190000
H       -0.93060000       1.64160000      -1.09440000
H       -0.81430000       1.93910000       0.64200000
H       -3.23930000      -0.57770000       0.92270000
H       -2.71720000      -0.35860000      -0.82310000
H       -1.61540000      -2.64210000      -1.90870000
H       -0.06460000      -2.81910000      -1.05530000
H       -2.64140000      -4.40710000      -0.46070000
H       -0.98790000      -4.92940000      -0.08560000
H       -0.86130000      -3.30030000       1.79720000
H       -2.63900000      -3.24960000       1.75860000
