17
Properties=species:S:1:pos:R:3 gdb_85388=T pbc="F F F"
C       -0.15380000       1.42420000       0.01100000
C       -0.07240000      -0.08290000       0.00220000
O        0.61160000      -0.48650000      -1.17600000
C        0.93400000      -1.81750000      -1.26270000
N        1.45870000      -2.32610000      -2.29000000
C        0.63190000      -2.61480000      -0.01730000
C        0.95470000      -1.83090000       1.23140000
N        1.49640000      -2.35060000       2.24440000
O        0.63110000      -0.49910000       1.16440000
H        0.85410000       1.84530000       0.00490000
H       -0.69340000       1.77050000      -0.87300000
H       -0.67850000       1.76090000       0.90760000
H       -1.07220000      -0.54100000       0.00810000
H        1.56860000      -1.62150000      -3.02210000
H       -0.44030000      -2.85920000      -0.00970000
H        1.18340000      -3.55150000      -0.02690000
H        1.61860000      -1.65390000       2.98200000
