19
Properties=species:S:1:pos:R:3 gdb_38428=T pbc="F F F"
C       -0.39530000       1.20090000      -0.21370000
O        0.80950000       1.87830000       0.20200000
C        1.47580000       0.62850000       0.45600000
C        0.23850000      -0.19030000       0.03030000
C       -0.45440000      -1.06820000       1.09540000
C       -1.32550000      -2.00300000       0.28200000
O       -2.05130000      -1.33540000      -0.76290000
C       -0.83600000      -2.02270000      -1.10230000
C        0.36100000      -1.10110000      -1.21100000
H       -1.25050000       1.44890000       0.42650000
H       -0.65680000       1.42460000      -1.25500000
H        2.36640000       0.49880000      -0.17410000
H        1.77090000       0.52350000       1.50910000
H        0.28260000      -1.66160000       1.65330000
H       -1.01590000      -0.47400000       1.82330000
H       -1.83830000      -2.84340000       0.74210000
H       -0.95330000      -2.87910000      -1.76090000
H        0.38710000      -0.53070000      -2.14470000
H        1.27960000      -1.70190000      -1.16640000
