14
Properties=species:S:1:pos:R:3 gdb_132652=T pbc="F F F"
N       -0.00750000       1.39590000      -0.09270000
C        0.02230000       0.00840000      -0.04130000
N       -1.15900000      -0.61380000      -0.02200000
C       -1.18230000      -1.94940000      -0.03720000
C       -0.04310000      -2.74240000      -0.06040000
O       -0.12610000      -4.10270000      -0.06670000
C        1.17740000      -2.06590000      -0.07200000
F        2.29670000      -2.80780000      -0.09190000
C        1.24190000      -0.69130000      -0.06690000
H        0.77190000       1.87270000       0.33470000
H       -0.90410000       1.77300000       0.17960000
H       -2.15710000      -2.42960000      -0.02430000
H        0.77120000      -4.45530000      -0.08430000
H        2.20090000      -0.18800000      -0.09090000
