15
Properties=species:S:1:pos:R:3 gdb_125119=T pbc="F F F"
C        0.05640000       1.55070000      -0.00860000
C        0.04470000       0.05480000      -0.01130000
C        0.04990000      -0.79740000      -1.09550000
O        0.05680000      -0.59640000      -2.43080000
N        0.03920000      -2.06500000      -0.62410000
N        0.02590000      -2.12420000       0.72570000
C        0.03000000      -0.84000000       1.10060000
C        0.01330000      -0.46590000       2.46830000
C       -0.00300000      -0.09610000       3.61390000
H        1.05490000       1.96560000      -0.19600000
H       -0.62160000       1.96940000      -0.76310000
H       -0.27110000       1.92590000       0.96430000
H        0.07800000       0.35150000      -2.59870000
H        0.03470000      -2.91340000      -1.16480000
H       -0.01580000       0.21050000       4.63030000
