19
Properties=species:S:1:pos:R:3 gdb_69087=T pbc="F F F"
C       -0.18660000       1.53590000       0.06770000
C        0.09710000       0.05630000      -0.01330000
C       -0.67030000      -0.91340000       0.85390000
C        0.81530000      -0.72870000       1.09810000
N        1.69590000      -1.74700000       0.53780000
C        1.31350000      -1.86260000      -0.88650000
C        0.66570000      -0.51860000      -1.30540000
C        1.26360000      -0.09970000       2.30640000
N        1.63180000       0.43100000       3.26660000
H        0.67970000       2.12090000      -0.26000000
H       -1.03450000       1.80700000      -0.57150000
H       -0.42830000       1.84110000       1.09000000
H       -1.33700000      -0.48670000       1.59480000
H       -0.99420000      -1.87120000       0.46140000
H        2.64910000      -1.40150000       0.60350000
H        2.18790000      -2.12310000      -1.48640000
H        0.59660000      -2.68240000      -0.99800000
H       -0.09380000      -0.65660000      -2.08180000
H        1.41760000       0.17580000      -1.69960000
