18
Properties=species:S:1:pos:R:3 gdb_80960=T pbc="F F F"
C        0.55090000       1.19960000       0.29820000
C        0.16710000      -0.24150000       0.14360000
N        0.68150000      -1.10510000      -1.00390000
C       -0.22890000      -2.02140000      -0.19270000
C        0.52390000      -1.46620000       1.05480000
O        1.86450000      -1.77700000       1.22250000
C       -1.26750000      -0.88130000      -0.05990000
C       -2.30670000      -0.83670000       1.02660000
O       -2.40130000      -1.61600000       1.94340000
H        1.63600000       1.27930000       0.41750000
H        0.25520000       1.79330000      -0.57330000
H        0.07810000       1.63290000       1.18510000
H        0.22720000      -0.83680000      -1.88170000
H       -0.40600000      -3.05640000      -0.48430000
H        0.01650000      -1.54910000       2.01200000
H        2.25040000      -1.71280000       0.33570000
H       -1.71370000      -0.56160000      -1.00950000
H       -3.02480000       0.01090000       0.92870000
