19
Properties=species:S:1:pos:R:3 gdb_93625=T pbc="F F F"
C       -0.42480000       1.48080000      -0.04890000
C        0.07120000       0.03890000      -0.07900000
C        0.94570000      -0.34070000      -1.28450000
O        1.91540000       0.67950000      -1.44600000
C        1.55250000      -1.67500000      -0.83660000
N        1.81000000      -1.49380000       0.59660000
C        0.95710000      -0.41790000       1.12120000
C        1.78070000       0.67030000       1.68970000
N        2.40360000       1.50890000       2.18380000
H        0.41040000       2.18200000      -0.08070000
H       -1.07090000       1.67680000      -0.91010000
H       -1.00630000       1.67710000       0.85730000
H       -0.78960000      -0.64080000      -0.09070000
H        0.34600000      -0.46070000      -2.19840000
H        2.64310000       0.33730000      -1.97360000
H        0.84220000      -2.48850000      -1.05280000
H        2.48050000      -1.90200000      -1.37800000
H        1.73030000      -2.34620000       1.13070000
H        0.31620000      -0.77030000       1.93850000
