18
Properties=species:S:1:pos:R:3 gdb_6454=T pbc="F F F"
C       -0.55360000       1.08950000       0.92620000
C        0.26010000      -0.06910000       0.39130000
C        0.70720000      -0.04240000      -1.08650000
C        2.13300000      -0.15540000      -0.51890000
C        3.16080000       0.90630000      -0.87210000
O        1.64620000      -0.02360000       0.84650000
C        2.74010000      -1.54940000      -0.63270000
O        2.42780000      -2.38060000      -1.44480000
H       -0.11370000       2.04600000       0.62780000
H       -1.57900000       1.04140000       0.54320000
H       -0.59570000       1.05640000       2.01940000
H       -0.19720000      -1.02310000       0.68490000
H        0.39870000      -0.87790000      -1.71470000
H        0.50560000       0.90330000      -1.59430000
H        2.75040000       1.90100000      -0.67800000
H        4.06670000       0.78700000      -0.26790000
H        3.43730000       0.83620000      -1.92960000
H        3.50590000      -1.74980000       0.15110000
