17
Properties=species:S:1:pos:R:3 gdb_102160=T pbc="F F F"
N        0.04130000       0.99600000       0.13950000
H        0.27450000       0.01500000       0.26090000
H        0.91280000       1.50160000       0.02400000
H       -1.30810000       1.27760000      -0.98140000
C       -0.71860000       1.49970000       1.29700000
C       -2.18990000       1.04270000       1.19900000
C       -2.97040000       1.37200000       2.48790000
C       -4.16800000       0.55210000       2.65440000
N       -5.08600000      -0.13020000       2.81490000
C       -2.91020000       1.64770000      -0.02530000
O       -2.23160000       1.58750000      -1.17320000
O       -4.00820000       2.13360000       0.05220000
H       -0.29830000       1.16880000       2.25660000
H       -0.66710000       2.59390000       1.28250000
H       -2.18450000      -0.04700000       1.06110000
H       -2.33080000       1.20880000       3.36310000
H       -3.26660000       2.42490000       2.48000000
