16
Properties=species:S:1:pos:R:3 gdb_30585=T pbc="F F F"
C       -0.05040000       1.53600000       0.07620000
C        0.01130000       0.00030000      -0.01750000
C        0.69370000      -0.47230000      -1.21540000
C        1.26050000      -0.85140000      -2.21050000
C        1.92380000      -1.29960000      -3.37510000
C        2.48580000      -0.56070000      -4.37270000
O        3.01360000      -1.41340000      -5.29460000
C        2.74150000      -2.64610000      -4.80290000
N        2.10560000      -2.65710000      -3.68210000
H        0.95490000       1.96540000       0.09280000
H       -0.58380000       1.95690000      -0.78040000
H       -0.57030000       1.83940000       0.98940000
H        0.51760000      -0.40250000       0.86940000
H       -1.00630000      -0.41090000       0.00470000
H        2.58840000       0.49280000      -4.56390000
H        3.07920000      -3.48590000      -5.38970000
