17
Properties=species:S:1:pos:R:3 gdb_62248=T pbc="F F F"
O       -0.11760000       1.40030000      -0.11510000
C       -0.00190000      -0.01890000      -0.01180000
C        0.47800000      -0.64480000      -1.33560000
C       -0.44770000      -0.27670000      -2.49030000
O        0.00600000      -0.89970000      -3.69760000
C        0.43780000      -0.10860000      -4.69740000
O        0.85250000      -0.53890000      -5.73060000
C        0.86040000      -0.41360000       1.10290000
C        1.60770000      -0.70890000       1.99670000
H        0.76490000       1.77220000      -0.00670000
H       -1.02420000      -0.36550000       0.18930000
H        1.49560000      -0.29830000      -1.55090000
H        0.52430000      -1.73330000      -1.22920000
H       -1.46450000      -0.64010000      -2.30720000
H       -0.49320000       0.81090000      -2.61150000
H        0.35960000       0.96960000      -4.45270000
H        2.25190000      -0.97600000       2.79820000
