25
Properties=species:S:1:pos:R:3 gdb_85946=T pbc="F F F"
C        0.01580000       1.60730000      -0.00470000
C        0.02230000       0.07130000       0.04980000
C        0.61150000      -0.53170000      -1.23680000
C        0.91300000      -2.04330000      -1.13940000
C       -0.37650000      -2.84120000      -0.86500000
C        1.52560000      -2.52560000      -2.46360000
C        1.92250000      -2.26560000       0.01080000
C        1.60920000      -1.46030000       1.24530000
C        0.76320000      -0.43110000       1.26460000
H        1.03590000       2.00040000      -0.07830000
H       -0.54790000       1.96680000      -0.87220000
H       -0.44280000       2.03390000       0.89380000
H       -1.02810000      -0.24870000       0.13690000
H       -0.06670000      -0.34170000      -2.07870000
H        1.54840000      -0.00610000      -1.46900000
H       -1.14140000      -2.62310000      -1.61890000
H       -0.17690000      -3.91800000      -0.89820000
H       -0.79500000      -2.61400000       0.11920000
H        2.42550000      -1.95380000      -2.71620000
H        1.80640000      -3.58350000      -2.40650000
H        0.81510000      -2.41450000      -3.29050000
H        1.96230000      -3.33340000       0.26610000
H        2.93700000      -2.01450000      -0.33440000
H        2.11780000      -1.75400000       2.16120000
H        0.57920000       0.09730000       2.19860000
