14
Properties=species:S:1:pos:R:3 gdb_6633=T pbc="F F F"
C        0.01120000       1.53420000      -0.04020000
C       -0.03220000       0.02500000       0.08700000
O       -0.08010000      -0.54710000       1.15430000
C       -0.01220000      -0.70630000      -1.16850000
C        0.00490000      -1.31140000      -2.21150000
C        0.02430000      -2.04520000      -3.47620000
C        0.03790000      -3.49990000      -3.31920000
C        0.04950000      -4.69410000      -3.20400000
H        0.91810000       1.84050000      -0.57290000
H       -0.84090000       1.88680000      -0.63130000
H       -0.00970000       1.98540000       0.95280000
H       -0.84810000      -1.74610000      -4.07400000
H        0.90010000      -1.72800000      -4.05940000
H        0.05930000      -5.75030000      -3.09320000
