18
Properties=species:S:1:pos:R:3 gdb_115989=T pbc="F F F"
O        0.13710000       1.43240000      -0.19000000
C        0.04800000       0.02940000      -0.06030000
C       -1.39700000      -0.48730000       0.03910000
C       -1.50510000      -2.03050000      -0.06640000
C       -2.64650000      -2.45040000       0.89260000
C       -2.75270000      -1.28120000       1.83280000
C       -2.08260000      -0.21510000       1.37500000
C       -2.00860000       1.04960000       2.01940000
N       -1.89460000       2.09320000       2.51260000
H       -0.11130000       1.84040000       0.64700000
H        0.50420000      -0.38760000      -0.96520000
H        0.62960000      -0.34450000       0.79820000
H       -1.96490000       0.00780000      -0.75980000
H       -1.66820000      -2.36370000      -1.09340000
H       -0.56370000      -2.47660000       0.27510000
H       -3.59930000      -2.59200000       0.36320000
H       -2.44470000      -3.39220000       1.41380000
H       -3.33030000      -1.29860000       2.74970000
