14
Properties=species:S:1:pos:R:3 gdb_101964=T pbc="F F F"
C       -0.01410000       1.47920000       0.16070000
N        0.04830000       0.02240000      -0.01270000
C        0.59650000      -0.44390000      -1.28350000
C        0.36840000      -1.99710000      -1.25740000
O        1.25300000      -2.78830000      -1.14560000
C       -0.19570000       0.09120000      -2.40450000
N       -0.83820000       0.45980000      -3.29010000
C        2.02800000      -0.12060000      -1.47860000
N        3.14570000       0.16130000      -1.54840000
H        0.96090000       1.97580000       0.05680000
H       -0.70490000       1.90230000      -0.57290000
H       -0.41080000       1.68240000       1.15750000
H        0.59650000      -0.39580000       0.73320000
H       -0.70650000      -2.25400000      -1.29060000
