14
Properties=species:S:1:pos:R:3 gdb_7699=T pbc="F F F"
N       -0.14760000       0.95880000      -0.69710000
H        0.07340000       0.02700000      -0.36520000
H        0.69940000       1.50350000      -0.78510000
C       -1.11990000       1.61350000       0.06250000
C       -1.03470000       2.89030000       0.52440000
H       -0.12210000       3.45700000       0.38030000
C       -2.13170000       3.53780000       1.23640000
O       -2.07970000       4.69020000       1.65730000
C       -3.30640000       2.67190000       1.42630000
C       -3.33400000       1.41110000       0.95210000
N       -2.25680000       0.87250000       0.28430000
H       -4.15550000       3.07740000       1.96190000
H       -4.18150000       0.74520000       1.06370000
H       -2.36150000      -0.00090000      -0.20550000
