19
Properties=species:S:1:pos:R:3 gdb_115894=T pbc="F F F"
O       -0.01610000       1.48170000      -0.15890000
C        0.05310000       0.07570000      -0.02830000
C       -1.33210000      -0.54560000       0.07980000
O       -2.04460000      -0.18480000      -1.10640000
C       -3.08930000      -1.13810000      -1.31970000
C       -2.55930000      -2.44360000      -0.76040000
C       -1.14090000      -2.81270000      -1.14580000
C       -1.41390000      -2.06790000       0.13780000
O       -1.25640000      -2.68240000       1.37680000
H       -0.64150000       1.65060000      -0.87330000
H        0.59030000      -0.38380000      -0.87300000
H        0.62100000      -0.13100000       0.88610000
H       -1.83810000      -0.14560000       0.97390000
H       -4.00770000      -0.84090000      -0.79010000
H       -3.29750000      -1.15310000      -2.39440000
H       -3.24910000      -3.22640000      -0.46990000
H       -0.87620000      -3.85880000      -1.03910000
H       -0.66980000      -2.29490000      -1.97510000
H       -0.31480000      -2.81040000       1.53320000
