17
Properties=species:S:1:pos:R:3 gdb_32935=T pbc="F F F"
C       -0.11260000       1.54930000       0.19710000
C       -0.30470000       0.16650000      -0.39490000
O       -1.05250000      -0.62080000       0.55110000
C       -1.34160000      -1.87780000       0.15500000
C       -2.37520000      -2.42920000      -0.53970000
N       -2.21260000      -3.80840000      -0.63690000
C       -1.10140000      -4.05910000      -0.00580000
O       -0.53140000      -5.26380000       0.18060000
N       -0.50370000      -2.94730000       0.49440000
H        0.45070000       2.18020000      -0.49680000
H       -1.07950000       2.02160000       0.39080000
H        0.43770000       1.49360000       1.14060000
H       -0.85700000       0.20750000      -1.34200000
H        0.66160000      -0.31870000      -0.59210000
H       -3.22590000      -1.92720000      -0.97180000
H       -1.12080000      -5.90290000      -0.24000000
H        0.32050000      -2.90590000       1.06940000
