17
Properties=species:S:1:pos:R:3 gdb_25794=T pbc="F F F"
C       -0.18710000       1.49700000       0.09780000
C        0.01710000      -0.00420000       0.00870000
O        1.12240000      -0.51210000      -0.04080000
C       -1.18150000      -0.84520000      -0.01700000
C       -1.33420000      -2.20260000      -0.09130000
C       -2.73310000      -2.45360000      -0.07980000
C       -3.34850000      -1.23380000       0.00090000
C       -4.77370000      -0.81600000       0.05050000
O       -2.41740000      -0.24950000       0.03980000
H        0.78710000       1.98620000       0.10680000
H       -0.77870000       1.85680000      -0.75030000
H       -0.74430000       1.75690000       1.00390000
H       -0.52700000      -2.91520000      -0.14660000
H       -3.22990000      -3.41020000      -0.12500000
H       -4.99510000      -0.26310000       0.97020000
H       -5.02730000      -0.16370000      -0.79250000
H       -5.42070000      -1.69460000       0.01280000
