25
Properties=species:S:1:pos:R:3 gdb_119900=T pbc="F F F"
C       -0.42310000       0.98590000      -1.94030000
C       -0.11320000      -0.17640000      -1.01960000
C        1.28210000      -0.47940000      -0.49330000
C        2.50480000       0.34670000      -0.83740000
C        3.18180000      -0.13280000      -2.11800000
O        4.33160000       0.67320000      -2.33150000
C        0.19140000      -0.02210000       0.46010000
C        0.25250000       1.35490000       1.09740000
C       -0.38430000      -1.07420000       1.39280000
H        0.19010000       1.86680000      -1.73790000
H       -0.25710000       0.70780000      -2.98740000
H       -1.47180000       1.29010000      -1.84540000
H       -0.70130000      -1.06040000      -1.25960000
H        1.51180000      -1.54220000      -0.42180000
H        2.26440000       1.40640000      -0.96000000
H        3.23800000       0.29130000      -0.02270000
H        3.45380000      -1.19660000      -2.01720000
H        2.47670000      -0.05670000      -2.96120000
H        4.76060000       0.37730000      -3.13940000
H        0.66190000       2.12090000       0.43680000
H       -0.74900000       1.68310000       1.40070000
H        0.87480000       1.33450000       2.00000000
H        0.21750000      -1.16710000       2.30530000
H       -1.40650000      -0.81700000       1.69720000
H       -0.41750000      -2.05830000       0.91480000
