14
Properties=species:S:1:pos:R:3 gdb_1478=T pbc="F F F"
O        0.32080000       0.54870000       0.90680000
C       -0.11720000       0.27590000      -0.41260000
C       -1.48680000      -0.41950000      -0.45610000
O       -1.91590000      -0.61250000      -1.78750000
C       -1.45110000      -1.72980000       0.35800000
C       -2.76110000      -2.35880000       0.48670000
N       -3.80090000      -2.85050000       0.59560000
H       -0.19380000       1.28730000       1.24800000
H       -0.16780000       1.18010000      -1.03380000
H        0.64110000      -0.38440000      -0.85400000
H       -2.23590000       0.24590000      -0.00990000
H       -1.30250000      -1.21400000      -2.22530000
H       -0.76030000      -2.43790000      -0.11890000
H       -1.04430000      -1.51410000       1.35120000
