22
Properties=species:S:1:pos:R:3 gdb_94323=T pbc="F F F"
C       -0.31260000       1.43500000       0.14250000
C        0.12050000      -0.00360000      -0.05110000
O        1.36140000      -0.12160000      -0.80370000
C        2.03950000      -0.78220000       0.28180000
C        0.77680000      -0.71760000       1.13540000
N        0.64160000      -0.30200000       2.52700000
C        0.24650000      -1.67760000       2.13030000
C       -1.24270000      -1.94500000       2.20370000
C        1.12660000      -2.83280000       2.56310000
H        0.45940000       2.00620000       0.66490000
H       -0.50390000       1.90370000      -0.82770000
H       -1.23020000       1.47960000       0.73760000
H       -0.67340000      -0.58560000      -0.54020000
H        2.38810000      -1.78640000       0.00500000
H        2.89530000      -0.19940000       0.65140000
H        1.55000000      -0.30790000       2.98780000
H       -1.81340000      -1.05890000       1.91680000
H       -1.52520000      -2.77070000       1.54090000
H       -1.53600000      -2.21730000       3.22390000
H        0.93690000      -3.09160000       3.61130000
H        0.92630000      -3.72700000       1.96220000
H        2.18980000      -2.59300000       2.46130000
