20
Properties=species:S:1:pos:R:3 gdb_100706=T pbc="F F F"
C       -0.30160000       1.46910000       0.11630000
C       -0.04440000      -0.03230000      -0.04700000
C        0.69360000      -0.38010000      -1.35020000
O        0.72210000      -1.80090000      -1.47660000
C        0.04450000       0.18370000      -2.62260000
N        0.70010000      -0.45140000      -3.77740000
H        0.10840000      -0.41150000      -4.59890000
H        1.56270000       0.03080000      -4.01070000
H        0.92750000      -1.96360000      -2.41420000
C        0.67840000      -0.58170000       1.20610000
O        0.73060000       0.02740000       2.24260000
O        1.22450000      -1.80160000       1.09350000
H        0.62600000       2.04210000       0.01300000
H       -1.01850000       1.83630000      -0.62270000
H       -0.69160000       1.66480000       1.11530000
H       -1.00620000      -0.56450000      -0.08930000
H        1.72680000       0.00640000      -1.28830000
H        1.11940000      -2.12750000       0.17620000
H       -1.01250000      -0.10430000      -2.63380000
H        0.09730000       1.27920000      -2.63090000
