20
Properties=species:S:1:pos:R:3 gdb_100906=T pbc="F F F"
C       -0.03420000       1.34020000       0.10920000
O       -0.02650000      -0.06410000      -0.02380000
C        0.69700000      -0.54880000      -1.13480000
C        2.20220000      -0.61890000      -0.87030000
C        0.12300000      -1.93860000      -1.46890000
O        0.41060000      -2.82200000      -0.41720000
C        0.10200000      -4.17680000      -0.69330000
C       -1.33410000      -1.84780000      -1.72750000
N       -2.46530000      -1.81120000      -1.95860000
H        0.96560000       1.74900000       0.31520000
H       -0.43230000       1.82920000      -0.79280000
H       -0.68590000       1.57450000       0.95360000
H        0.50240000       0.08740000      -2.01430000
H        2.73450000      -0.99960000      -1.74810000
H        2.59700000       0.37590000      -0.64900000
H        2.40110000      -1.27720000      -0.02310000
H        0.59380000      -2.28480000      -2.40520000
H        0.65190000      -4.54100000      -1.57430000
H        0.40780000      -4.75150000       0.18260000
H       -0.97320000      -4.32130000      -0.86270000
