21
Properties=species:S:1:pos:R:3 gdb_32731=T pbc="F F F"
C       -0.15500000       1.63440000       0.10360000
C       -0.12420000       0.10500000       0.05510000
C        0.77340000      -0.51180000       1.14870000
C        0.83780000      -2.00340000       1.14110000
C        1.79840000      -2.85680000       0.63050000
N        3.00680000      -2.44510000       0.01130000
C        1.38280000      -4.19330000       0.90070000
C        0.17950000      -4.12300000       1.56510000
N       -0.14800000      -2.80120000       1.69260000
H        0.84800000       2.05460000      -0.03110000
H       -0.79760000       2.04780000      -0.68000000
H       -0.53310000       1.99270000       1.06800000
H       -1.14290000      -0.29050000       0.15850000
H        0.22800000      -0.23180000      -0.92770000
H        1.79610000      -0.13280000       1.03160000
H        0.42890000      -0.15350000       2.13010000
H        2.84160000      -1.89270000      -0.82250000
H        3.56390000      -3.24560000      -0.26050000
H        1.91240000      -5.09670000       0.63620000
H       -0.46360000      -4.89850000       1.94880000
H       -0.97090000      -2.45150000       2.15040000
