14
Properties=species:S:1:pos:R:3 gdb_75862=T pbc="F F F"
O        0.04630000       1.40530000      -0.15660000
C       -0.02430000       0.00470000      -0.04540000
C        0.59680000      -0.47400000       1.28480000
O        1.65810000      -0.12340000       1.74340000
N       -0.32650000      -1.32730000       1.85370000
C       -1.52440000      -1.31300000       1.12850000
C       -1.44040000      -0.54180000       0.02620000
C       -2.43030000      -0.32550000      -0.94860000
C       -3.25440000      -0.11730000      -1.80340000
H        0.91170000       1.65860000       0.19280000
H        0.51660000      -0.49020000      -0.87130000
H       -0.22340000      -1.69680000       2.78570000
H       -2.36330000      -1.90120000       1.47030000
H       -3.98570000       0.06850000      -2.55010000
