19
Properties=species:S:1:pos:R:3 gdb_94859=T pbc="F F F"
O       -0.71830000       1.13270000       0.92650000
C       -0.09760000       0.15670000       0.09830000
C        0.85300000      -0.75990000       0.88030000
O        0.04850000      -1.78940000       1.44920000
C       -1.27130000      -1.73440000       0.92680000
C       -1.96970000      -3.10260000       0.80160000
O       -3.07300000      -2.65960000       1.61520000
C       -2.38720000      -1.43560000       1.95900000
C       -1.18600000      -0.83580000      -0.30820000
H       -0.03040000       1.67180000       1.32960000
H        0.40090000       0.62690000      -0.76010000
H        1.61010000      -1.19940000       0.21430000
H        1.37610000      -0.22240000       1.68150000
H       -2.28970000      -3.40930000      -0.20200000
H       -1.39860000      -3.91410000       1.27080000
H       -2.01530000      -1.44240000       2.99110000
H       -3.00660000      -0.54900000       1.79110000
H       -2.12660000      -0.34080000      -0.55390000
H       -0.85640000      -1.41770000      -1.17590000
