21
Properties=species:S:1:pos:R:3 gdb_93232=T pbc="F F F"
C        0.06230000       1.56710000       0.00570000
C        0.03730000       0.04110000       0.00950000
C        0.73080000      -0.53260000      -1.23180000
N        0.91200000      -1.97840000      -1.16100000
C        1.29540000      -2.63830000      -2.39710000
C        0.88440000      -2.70400000       0.00160000
O        1.08890000      -3.90660000       0.04230000
C        0.53620000      -1.93750000       1.28170000
N        0.62510000      -0.48220000       1.24160000
H        1.09260000       1.94140000       0.03700000
H       -0.41150000       1.96950000      -0.89500000
H       -0.46430000       1.95310000       0.88150000
H       -1.00880000      -0.29690000      -0.00010000
H        0.14230000      -0.30300000      -2.13080000
H        1.70940000      -0.04000000      -1.36570000
H        2.23630000      -2.22620000      -2.78530000
H        1.42250000      -3.69970000      -2.18990000
H        0.52170000      -2.50150000      -3.16230000
H       -0.48950000      -2.22750000       1.54860000
H        1.17990000      -2.33270000       2.07100000
H        1.60040000      -0.19810000       1.29030000
