13
Properties=species:S:1:pos:R:3 gdb_21479=T pbc="F F F"
N        0.07170000       1.36930000       0.10590000
C       -0.02980000       0.02890000       0.00100000
N        1.09250000      -0.69810000      -0.12060000
H        0.94630000      -1.70030000      -0.09020000
H        1.99270000      -0.32460000       0.12850000
C       -1.26240000      -0.64230000       0.01890000
C       -2.60890000      -0.23030000       0.00580000
N       -3.36450000      -1.31550000       0.02060000
N       -2.51460000      -2.39560000       0.04160000
N       -1.27360000      -2.01660000       0.04120000
H        0.92220000       1.84210000      -0.15080000
H       -0.77160000       1.91690000       0.10330000
H       -3.04120000       0.76090000      -0.01830000
