14
Properties=species:S:1:pos:R:3 gdb_26888=T pbc="F F F"
C       -0.02920000       1.56320000       0.00940000
C       -0.01130000       0.05930000       0.00130000
C       -1.15770000      -0.69950000       0.00380000
O       -2.36750000      -0.14770000       0.01370000
O       -1.15110000      -2.00900000      -0.00320000
C        0.14320000      -2.77940000      -0.01460000
O       -0.00590000      -3.95810000      -0.01990000
N        1.26140000      -2.02420000      -0.01710000
C        1.16570000      -0.71270000      -0.00960000
H        0.99330000       1.95010000       0.00340000
H       -0.54670000       1.97050000      -0.86550000
H       -0.53290000       1.96130000       0.89660000
H       -3.02400000      -0.85970000       0.01370000
H        2.11770000      -0.17970000      -0.01240000
