16
Properties=species:S:1:pos:R:3 gdb_32185=T pbc="F F F"
C        0.39050000       0.81200000       0.53360000
N       -0.18590000       0.11090000      -0.62480000
C       -1.38740000      -0.57140000      -0.39490000
C       -2.70650000      -0.25380000      -0.53320000
N       -3.51790000      -1.32930000      -0.19550000
C       -2.70920000      -2.28490000       0.15770000
N       -1.38170000      -1.90410000       0.05320000
C       -0.26560000      -2.72260000       0.24180000
O       -0.33360000      -3.85760000       0.63310000
H        1.32380000       1.29150000       0.22740000
H       -0.28010000       1.57130000       0.96050000
H        0.62600000       0.08870000       1.31920000
H       -0.29130000       0.74510000      -1.40650000
H       -3.12790000       0.68430000      -0.86220000
H       -2.97530000      -3.27430000       0.49430000
H        0.66800000      -2.20150000      -0.02260000
