18
Properties=species:S:1:pos:R:3 gdb_15060=T pbc="F F F"
O        0.02300000       1.37550000       0.08180000
C       -0.06180000      -0.03110000       0.12820000
C       -1.50810000      -0.55000000      -0.06270000
C       -2.03550000      -0.05560000      -1.33580000
C       -2.40880000       0.37540000      -2.39550000
C       -1.57080000      -2.06770000       0.03070000
C       -1.63880000      -2.73280000       1.38300000
C       -2.83660000      -2.75630000       0.46540000
H       -0.35050000       1.65260000      -0.76380000
H        0.58740000      -0.50580000      -0.62480000
H        0.29430000      -0.33480000       1.11690000
H       -2.11290000      -0.12220000       0.74880000
H       -2.77070000       0.74020000      -3.32510000
H       -0.98580000      -2.57660000      -0.73030000
H       -1.08200000      -3.65070000       1.53390000
H       -1.68750000      -2.09510000       2.25990000
H       -3.68650000      -2.13410000       0.72570000
H       -3.10280000      -3.69100000      -0.01490000
