17
Properties=species:S:1:pos:R:3 gdb_114594=T pbc="F F F"
O        0.06970000       1.38130000      -0.32610000
C        0.09910000       0.04770000       0.14700000
C       -1.29080000      -0.55750000       0.09900000
O       -1.84720000      -0.53120000      -1.25260000
C       -2.17360000      -1.91510000      -1.17050000
C       -0.95470000      -2.75710000      -1.05030000
C       -1.51140000      -2.07640000       0.20180000
C       -1.90920000      -2.77470000       1.37130000
C       -2.23640000      -3.34850000       2.37760000
H       -0.32950000       1.34970000      -1.20380000
H        0.80590000      -0.56930000      -0.42710000
H        0.44920000       0.08120000       1.18440000
H       -1.96620000      -0.01340000       0.76820000
H       -3.14160000      -2.23510000      -1.53690000
H       -1.12250000      -3.82880000      -1.05940000
H       -0.02240000      -2.42670000      -1.49670000
H       -2.52950000      -3.85730000       3.26210000
