18
Properties=species:S:1:pos:R:3 gdb_99532=T pbc="F F F"
C       -0.12020000       1.56210000       0.09750000
C       -0.03040000       0.02690000      -0.01520000
C       -1.38000000      -0.54780000       0.02510000
N       -2.45570000      -0.96840000       0.05210000
C        0.71520000      -0.44840000      -1.30020000
C        2.14570000       0.13050000      -1.41750000
N        2.76810000      -0.33880000      -2.64790000
C        0.79170000      -1.91330000      -1.33190000
N        0.91040000      -3.06270000      -1.34620000
H        0.86940000       2.00050000       0.23890000
H       -0.57300000       1.99320000      -0.80000000
H       -0.73800000       1.83720000       0.95490000
H        0.51350000      -0.36270000       0.85400000
H        0.14910000      -0.12570000      -2.18120000
H        2.06900000       1.21950000      -1.47440000
H        2.69660000      -0.11250000      -0.49220000
H        3.64420000       0.14710000      -2.80460000
H        2.98590000      -1.32870000      -2.58110000
