18
Properties=species:S:1:pos:R:3 gdb_126980=T pbc="F F F"
C       -0.21170000       0.94650000      -0.99660000
C        0.17290000       0.05890000       0.17620000
O        1.28260000      -0.81480000      -0.12990000
C        1.01240000      -1.86680000      -0.92590000
C        1.31980000      -2.14030000      -2.24030000
C        2.02750000      -1.28950000      -3.24110000
N        0.87010000      -3.40130000      -2.51650000
N        0.30670000      -3.91710000      -1.46120000
N        0.38720000      -2.99300000      -0.48340000
H        0.63520000       1.56450000      -1.30740000
H       -0.54060000       0.34880000      -1.85140000
H       -1.03480000       1.60740000      -0.70670000
H        0.52210000       0.65300000       1.02420000
H       -0.68240000      -0.54230000       0.51080000
H        2.40100000      -0.37750000      -2.76880000
H        2.87660000      -1.82550000      -3.67590000
H        1.36570000      -1.00400000      -4.06560000
H        0.04940000      -3.20500000       0.44180000
