19
Properties=species:S:1:pos:R:3 gdb_42404=T pbc="F F F"
O       -0.11810000       0.94230000      -1.87680000
C       -0.01700000       1.81380000      -1.04110000
C        1.32530000       2.44790000      -0.68130000
N        1.91390000       1.66330000       0.40620000
C        2.63860000       0.46190000      -0.00770000
C        3.37420000       1.66180000       0.47550000
N       -1.10520000       2.33720000      -0.35640000
C       -1.26930000       2.31880000       1.08790000
C       -2.16540000       1.52110000       0.18280000
H        1.94820000       2.45290000      -1.58910000
H        1.19070000       3.47650000      -0.33350000
H        2.51640000      -0.40330000       0.63690000
H        2.67320000       0.23760000      -1.07080000
H        3.91630000       2.24780000      -0.26450000
H        3.79670000       1.68770000       1.47560000
H       -0.51660000       1.78760000       1.66230000
H       -1.63630000       3.23950000       1.53350000
H       -3.17720000       1.86580000      -0.00980000
H       -2.02540000       0.44450000       0.13910000
