16
Properties=species:S:1:pos:R:3 gdb_108896=T pbc="F F F"
O       -0.00940000       1.42470000       0.07140000
C        0.01670000       0.01760000      -0.04910000
C       -1.38050000      -0.50450000      -0.02420000
C       -2.50780000       0.18720000       0.09420000
C       -3.68050000      -0.76580000       0.09130000
O       -3.12330000      -2.05080000      -0.15460000
C       -1.69720000      -1.97400000      -0.11880000
C       -4.41350000      -0.75020000       1.38010000
N       -4.98780000      -0.72280000       2.38230000
H        0.89700000       1.74500000       0.08060000
H        0.50490000      -0.30230000      -0.98670000
H        0.58770000      -0.45280000       0.77070000
H       -2.60780000       1.25660000       0.20360000
H       -4.41040000      -0.53930000      -0.69920000
H       -1.29760000      -2.44190000      -1.02950000
H       -1.30480000      -2.53790000       0.74200000
