19
Properties=species:S:1:pos:R:3 gdb_65073=T pbc="F F F"
C       -0.06690000       1.40980000      -0.67620000
C        0.01450000       0.02650000      -0.06660000
C        1.29860000      -0.69560000      -0.04410000
O        0.79740000      -0.05060000       1.13100000
C       -1.27800000      -0.75430000      -0.03800000
C       -1.54820000      -1.72130000       1.11350000
C       -2.30450000      -0.44180000       1.04570000
C       -1.82470000      -1.17600000      -1.35720000
O       -2.89740000      -1.70970000      -1.51500000
H        0.90680000       1.90390000      -0.64040000
H       -0.39470000       1.36260000      -1.72020000
H       -0.78820000       2.02440000      -0.12800000
H        1.30330000      -1.78400000      -0.00890000
H        2.18410000      -0.23790000      -0.48240000
H       -2.06890000      -2.63410000       0.84860000
H       -0.75570000      -1.80510000       1.84690000
H       -2.03840000       0.34350000       1.74430000
H       -3.34270000      -0.47710000       0.73640000
H       -1.15570000      -0.98240000      -2.22600000
