21
Properties=species:S:1:pos:R:3 gdb_114461=T pbc="F F F"
C       -0.02760000       1.63830000       0.02460000
C        0.14040000       0.12180000      -0.12070000
C        0.68160000      -0.53480000       1.14520000
C       -0.23280000      -0.62950000       2.41780000
C        0.08130000      -2.15140000       2.53060000
C       -0.91010000      -3.11610000       1.83280000
O       -1.46970000      -2.43330000       0.70650000
C       -0.16900000      -3.01870000       0.55960000
C        0.89020000      -2.08130000       1.19440000
H        0.92770000       2.12600000       0.25110000
H       -0.42000000       2.08520000      -0.89420000
H       -0.72330000       1.88360000       0.83460000
H       -0.81900000      -0.33420000      -0.38220000
H        0.82710000      -0.09120000      -0.95150000
H        1.62920000      -0.05280000       1.41550000
H        0.10980000      -0.03620000       3.26830000
H       -1.28580000      -0.40950000       2.23070000
H        0.53740000      -2.52590000       3.44640000
H       -1.50390000      -3.91770000       2.25860000
H       -0.04920000      -3.72490000      -0.25480000
H        1.90790000      -2.46930000       1.12850000
