18
Properties=species:S:1:pos:R:3 gdb_51728=T pbc="F F F"
N        0.03040000       1.21340000      -0.16700000
C        0.02570000      -0.04150000      -0.05100000
O       -1.14650000      -0.71130000      -0.02780000
C       -1.11600000      -2.10980000       0.16320000
C       -1.88620000      -2.64830000       1.38750000
O       -2.68620000      -3.50610000       0.54180000
C       -2.14790000      -2.89670000      -0.63390000
C       -2.99620000      -2.41410000      -1.76060000
C       -2.05550000      -3.59860000      -1.94410000
H        0.98780000       1.55850000      -0.17880000
H        0.90370000      -0.69730000       0.03320000
H       -0.09190000      -2.48820000       0.07260000
H       -1.31500000      -3.21770000       2.12730000
H       -2.48470000      -1.87500000       1.88240000
H       -4.05790000      -2.62610000      -1.69770000
H       -2.74060000      -1.46370000      -2.21620000
H       -1.15920000      -3.46900000      -2.54280000
H       -2.50110000      -4.58590000      -2.00120000
