17
Properties=species:S:1:pos:R:3 gdb_52296=T pbc="F F F"
O        0.66110000      -0.00290000       0.39940000
C        0.58280000       1.18550000       0.45910000
O        0.95030000       1.98230000      -0.57130000
C        0.85460000       3.39750000      -0.39770000
C        2.21200000       3.99160000      -0.05060000
C        2.37250000       5.54040000       0.08260000
C        3.17880000       5.35000000       1.40550000
C        2.68120000       3.89850000       1.41460000
O        2.53680000       3.06880000       2.26580000
H        0.20390000       1.75190000       1.32820000
H        0.49070000       3.79960000      -1.34790000
H        0.11520000       3.63750000       0.37770000
H        2.96960000       3.56950000      -0.72040000
H        2.88900000       6.04040000      -0.73650000
H        1.41540000       6.03960000       0.25580000
H        4.26170000       5.39990000       1.25220000
H        2.91900000       5.95980000       2.27340000
