15
Properties=species:S:1:pos:R:3 gdb_12040=T pbc="F F F"
N        0.06690000       1.46130000      -0.01590000
C        0.02360000       0.01210000       0.00010000
C        0.24290000      -0.64190000       1.43010000
C       -1.13660000      -1.28820000       1.31230000
N       -2.09250000      -0.16890000       1.11870000
C       -1.35780000      -0.71910000      -0.03990000
C        0.93790000      -0.53370000      -1.00200000
N        1.63180000      -0.98410000      -1.80910000
H       -0.09380000       1.81230000      -0.95600000
H       -0.69890000       1.79030000       0.56830000
H        1.06850000      -1.35390000       1.43620000
H        0.36490000       0.08680000       2.23380000
H       -1.46140000      -2.23470000       1.72310000
H       -3.03370000      -0.55840000       1.09340000
H       -1.86920000      -1.11240000      -0.90970000
