18
Properties=species:S:1:pos:R:3 gdb_62764=T pbc="F F F"
C        0.24980000       1.59130000       0.02570000
C        0.09100000       0.09180000      -0.04790000
O       -1.13820000      -0.39200000       0.43170000
C        0.57330000      -0.75370000      -1.20890000
C        1.63780000      -0.20260000      -2.13630000
C        2.82870000       0.07400000      -1.22880000
N        3.90350000       0.63340000      -1.57780000
O        2.55860000      -0.35820000       0.04840000
C        1.24400000      -0.87010000       0.14010000
H        1.21900000       1.93190000      -0.34350000
H       -0.53600000       2.08080000      -0.55800000
H        0.16030000       1.92950000       1.06520000
H       -1.19130000      -0.18220000       1.37150000
H       -0.10270000      -1.52390000      -1.55770000
H        1.92070000      -0.94220000      -2.89130000
H        1.35620000       0.70900000      -2.66920000
H        4.54310000       0.71120000      -0.78540000
H        1.16010000      -1.72630000       0.79830000
