19
Properties=species:S:1:pos:R:3 gdb_17138=T pbc="F F F"
O        0.80100000       0.42080000      -0.70910000
C       -0.04650000      -0.30160000       0.14560000
C       -0.03340000      -0.02810000       1.67500000
C       -1.56690000      -0.27560000       1.68080000
C       -1.57550000      -0.02600000       0.14770000
N       -1.87130000      -1.66570000       1.98630000
C       -2.19880000      -1.96550000       3.37530000
C       -3.25750000      -1.96400000       2.32680000
H        0.65000000       1.35960000      -0.55550000
H        0.15320000      -1.35560000      -0.05750000
H        0.58190000      -0.66510000       2.31370000
H        0.19690000       1.02300000       1.88180000
H       -2.16780000       0.41990000       2.28850000
H       -1.78320000       1.02570000      -0.07910000
H       -2.22110000      -0.66120000      -0.46230000
H       -1.80740000      -2.90050000       3.76560000
H       -2.20570000      -1.14110000       4.08700000
H       -3.96800000      -1.13860000       2.34170000
H       -3.65290000      -2.89800000       1.93780000
