18
Properties=species:S:1:pos:R:3 gdb_42412=T pbc="F F F"
O       -0.01390000       0.08090000       0.33470000
C       -0.00430000       1.28030000       0.21530000
O        1.05800000       2.01450000      -0.19280000
C        2.24900000       1.28270000      -0.41780000
C        3.46700000       2.11470000      -0.64280000
C        3.30640000       1.32330000       0.64240000
N       -1.06180000       2.12470000       0.52970000
C       -1.68590000       3.01290000      -0.43580000
C       -2.41130000       1.81890000       0.10810000
H        2.09080000       0.36910000      -0.97730000
H        4.18590000       1.78200000      -1.38280000
H        3.34300000       3.18960000      -0.57910000
H        3.07790000       1.88480000       1.54100000
H        3.90910000       0.43590000       0.79780000
H       -1.92100000       4.00980000      -0.07460000
H       -1.33430000       2.96630000      -1.46270000
H       -2.54380000       0.96100000      -0.54510000
H       -3.17920000       1.94760000       0.86490000
