16
Properties=species:S:1:pos:R:3 gdb_17939=T pbc="F F F"
O       -0.10800000       1.40650000      -0.00060000
C        0.02720000       0.03910000      -0.00560000
C       -1.03950000      -1.00240000       0.07480000
C       -0.51910000      -1.69760000      -1.17060000
C        0.82390000      -0.86590000      -1.03450000
C        1.77160000      -1.67120000      -0.18680000
C        1.29510000      -1.73590000       1.06530000
C        0.08120000      -0.88920000       1.18040000
H        0.70000000       1.78960000       0.36100000
H       -2.07240000      -0.90630000       0.38590000
H       -0.41730000      -2.78720000      -1.16840000
H       -1.08400000      -1.37550000      -2.04880000
H        1.20930000      -0.42030000      -1.95040000
H        2.61930000      -2.21760000      -0.58180000
H        1.70070000      -2.32270000       1.88040000
H       -0.29330000      -0.53810000       2.13520000
