20
Properties=species:S:1:pos:R:3 gdb_93495=T pbc="F F F"
C        0.02190000       1.57480000       0.00410000
C        0.03170000       0.04480000       0.02450000
C        0.72090000      -0.53450000      -1.22270000
C        1.02350000      -2.02940000      -1.18270000
O        1.23030000      -2.67950000      -2.18850000
N        1.15130000      -2.58500000       0.07120000
C        0.59530000      -2.03380000       1.30450000
C        0.71050000      -0.51070000       1.29100000
O        2.06540000      -0.09370000       1.40620000
H        1.04250000       1.96000000       0.08480000
H       -0.41950000       1.95500000      -0.92260000
H       -0.55720000       1.97720000       0.84200000
H       -1.00710000      -0.31450000       0.04330000
H        0.14020000      -0.34670000      -2.12880000
H        1.68570000      -0.03110000      -1.37340000
H        1.32880000      -3.57990000       0.04210000
H       -0.45790000      -2.32270000       1.43770000
H        1.16000000      -2.43510000       2.15180000
H        0.20440000      -0.11550000       2.17890000
H        2.59570000      -0.66840000       0.84250000
