20
Properties=species:S:1:pos:R:3 gdb_55686=T pbc="F F F"
C       -0.02280000       1.51300000      -0.11840000
C        0.05790000       0.00830000       0.08410000
O        1.08180000      -0.54860000       0.44510000
N       -1.09150000      -0.68480000      -0.16150000
C       -1.15000000      -2.13570000      -0.06620000
C       -0.43840000      -2.81920000      -1.23200000
C       -0.80110000      -2.71820000       1.32600000
O       -2.09480000      -3.36150000       1.41850000
C       -2.56280000      -2.68490000       0.24220000
H        0.41560000       2.00620000       0.75190000
H        0.58220000       1.78590000      -0.98830000
H       -1.04050000       1.88300000      -0.26790000
H       -1.90350000      -0.19530000      -0.50020000
H        0.61540000      -2.53190000      -1.24190000
H       -0.50560000      -3.90690000      -1.13370000
H       -0.89300000      -2.53130000      -2.18620000
H        0.02190000      -3.43800000       1.35510000
H       -0.65800000      -1.96370000       2.10560000
H       -3.30540000      -1.90790000       0.47830000
H       -2.98660000      -3.37490000      -0.49720000
