16
Properties=species:S:1:pos:R:3 gdb_25033=T pbc="F F F"
O        0.09100000       0.02930000      -0.20410000
C       -0.01630000       1.21930000      -0.08830000
N       -1.11360000       1.99180000       0.20150000
C       -0.76000000       3.34570000       0.23540000
C        0.55330000       3.40470000      -0.03290000
O        1.02960000       2.11980000      -0.23390000
C        1.50440000       4.50950000      -0.14290000
C        2.94170000       4.34110000       0.31370000
C        2.63630000       4.45790000      -1.15230000
H       -2.02130000       1.59350000       0.36030000
H       -1.46840000       4.12760000       0.44480000
H        1.04660000       5.47780000       0.02950000
H        3.40570000       5.18050000       0.81890000
H        3.22600000       3.36590000       0.69090000
H        2.71660000       3.56070000      -1.75450000
H        2.88800000       5.37840000      -1.66640000
