24
Properties=species:S:1:pos:R:3 gdb_110143=T pbc="F F F"
C       -0.47630000       1.41360000      -0.73110000
C       -0.44280000       0.46400000       0.47310000
C       -1.70440000      -0.37810000       0.56230000
C       -1.85450000      -1.73300000      -0.06090000
C       -0.75390000      -2.39650000      -0.85110000
O       -0.99790000      -3.80060000      -0.83180000
N       -1.83900000      -1.57010000       1.39610000
C       -0.72700000      -2.05970000       2.20530000
C       -0.96800000      -3.51570000       2.60150000
H        0.40810000       2.05760000      -0.75140000
H       -0.51090000       0.85860000      -1.67440000
H       -1.35920000       2.06120000      -0.69800000
H        0.45420000      -0.15890000       0.42350000
H       -0.35340000       1.05270000       1.39560000
H       -2.60280000       0.24280000       0.57840000
H       -2.83600000      -2.00990000      -0.44630000
H       -0.78460000      -2.01110000      -1.88320000
H        0.23990000      -2.16600000      -0.44680000
H       -0.31950000      -4.22970000      -1.36200000
H        0.25710000      -1.97360000       1.71880000
H       -0.68370000      -1.42720000       3.10050000
H       -0.16720000      -3.87410000       3.25660000
H       -1.92130000      -3.61470000       3.12850000
H       -1.00030000      -4.14740000       1.70970000
