20
Properties=species:S:1:pos:R:3 gdb_110384=T pbc="F F F"
C       -0.28320000       1.49530000      -0.09460000
C       -0.00600000       0.00480000      -0.00510000
C        1.28410000      -0.57200000      -0.60330000
C        2.18970000      -0.12560000       0.58940000
C        2.69080000      -1.56380000       0.70260000
C        3.09720000      -2.20110000       2.01680000
O        2.97650000      -3.61130000       1.93310000
N        1.22100000      -1.80390000       0.34000000
C        0.80500000      -0.55390000       1.17330000
H        0.60690000       2.08860000       0.13890000
H       -0.61460000       1.77200000      -1.10110000
H       -1.07350000       1.78890000       0.60440000
H       -0.89250000      -0.59600000      -0.23860000
H        1.58340000      -0.70040000      -1.64600000
H        2.72160000       0.82160000       0.72170000
H        3.35440000      -1.90960000      -0.10010000
H        4.14800000      -1.98490000       2.24040000
H        2.49680000      -1.79550000       2.84710000
H        2.11100000      -3.78370000       1.54180000
H        0.51550000      -0.65030000       2.22060000
