16
Properties=species:S:1:pos:R:3 gdb_28298=T pbc="F F F"
N        0.04710000       1.37380000       0.14660000
C       -0.03830000      -0.01740000       0.05400000
C       -1.16470000      -0.81680000       0.04030000
N       -0.65810000      -2.10700000       0.01310000
C       -1.06470000      -3.45030000      -0.02400000
C        0.01330000      -4.24740000      -0.04510000
C        1.27690000      -3.40120000      -0.02190000
C        0.70300000      -2.01420000       0.01280000
N        1.12100000      -0.76950000       0.03480000
H        0.95790000       1.69410000      -0.15640000
H       -0.68260000       1.85980000      -0.35690000
H       -2.21740000      -0.59710000       0.05940000
H       -2.11470000      -3.70250000      -0.03020000
H        0.00100000      -5.32590000      -0.07240000
H        1.90190000      -3.61490000       0.85390000
H        1.90630000      -3.57150000      -0.90380000
