10
Properties=species:S:1:pos:R:3 gdb_23762=T pbc="F F F"
F        0.00320000       0.03630000       0.00400000
C       -0.03200000       1.35800000       0.01090000
N       -1.18970000       1.95480000       0.02900000
C       -1.17740000       3.29830000       0.03540000
C        0.01140000       4.00810000       0.02340000
N        1.19970000       3.38130000       0.00480000
C        1.17560000       2.07900000      -0.00120000
F        2.32220000       1.42080000      -0.01950000
H       -2.13930000       3.79980000       0.05040000
H        0.02650000       5.09280000       0.02850000
