23
Properties=species:S:1:pos:R:3 gdb_68408=T pbc="F F F"
C        0.00000000       1.53060000       0.03420000
C        0.01580000       0.01970000       0.03170000
C        0.88590000      -0.80030000      -0.97730000
C        0.69460000      -1.93080000       0.07270000
C        0.74390000      -0.80520000       1.14400000
C       -0.81750000      -2.20970000      -0.02910000
C       -1.31500000      -0.74610000      -0.05920000
C       -2.58030000      -0.30290000       0.61650000
C       -2.47900000      -0.29940000      -0.89560000
H        1.01740000       1.92900000       0.10340000
H       -0.44800000       1.93080000      -0.88250000
H       -0.56660000       1.92680000       0.88450000
H        0.49250000      -0.95610000      -1.98680000
H        1.91610000      -0.43710000      -1.02390000
H        1.35860000      -2.79460000       0.11520000
H        1.75860000      -0.44260000       1.32910000
H        0.21950000      -0.96550000       2.09130000
H       -1.07930000      -2.76380000      -0.93680000
H       -1.19780000      -2.76780000       0.83300000
H       -3.20130000      -1.05920000       1.08650000
H       -2.59700000       0.65740000       1.12230000
H       -2.42840000       0.66320000      -1.39470000
H       -3.03160000      -1.05350000      -1.44760000
