17
Properties=species:S:1:pos:R:3 gdb_27538=T pbc="F F F"
C        0.09530000       1.47070000       0.11710000
C       -0.02590000      -0.00790000       0.02830000
N       -1.04610000      -0.75360000       0.31480000
C       -0.62030000      -2.05620000       0.05250000
C        0.65950000      -2.01590000      -0.38590000
O        1.05480000      -0.70290000      -0.40640000
N       -1.40990000      -3.20460000       0.22380000
C       -2.36450000      -3.18550000       1.34640000
C       -2.85100000      -3.05920000      -0.04750000
H        0.89910000       1.75900000       0.80240000
H        0.32480000       1.90600000      -0.86100000
H       -0.84660000       1.88350000       0.47880000
H        1.37580000      -2.75380000      -0.69870000
H       -2.45430000      -4.12780000       1.87870000
H       -2.38780000      -2.28970000       1.95970000
H       -3.19800000      -2.07950000      -0.36170000
H       -3.30280000      -3.90760000      -0.55280000
