14
Properties=species:S:1:pos:R:3 gdb_129959=T pbc="F F F"
N        0.33610000       1.37260000      -0.13540000
C        0.06670000      -0.01970000      -0.08760000
C       -1.07030000      -0.76270000      -0.10580000
O       -0.78200000      -2.06410000      -0.00540000
N        0.61180000      -2.23680000       0.07880000
C        1.09150000      -1.01620000       0.03550000
N        2.42770000      -0.66420000       0.10600000
C        3.52660000      -1.49120000       0.18600000
O        3.50740000      -2.69410000       0.18850000
H        0.22370000       1.75340000      -1.06950000
H       -0.26470000       1.90030000       0.48740000
H       -2.11750000      -0.51000000      -0.17650000
H        2.57520000       0.33710000       0.12140000
H        4.45540000      -0.88950000       0.24600000
