17
Properties=species:S:1:pos:R:3 gdb_47257=T pbc="F F F"
O        0.08910000      -0.01320000      -0.09790000
C        0.00750000       1.18600000       0.02000000
C       -1.31800000       1.92310000       0.07860000
C       -1.49900000       2.95460000      -1.06710000
C       -0.63380000       4.18540000      -0.93250000
C        0.69960000       4.18810000      -0.95120000
C        1.56000000       2.94920000      -1.09730000
C        1.31470000       2.00890000       0.08180000
O        2.07740000       1.88130000       1.00540000
H       -2.10330000       1.16240000       0.04060000
H       -1.38550000       2.44580000       1.04130000
H       -1.30690000       2.45270000      -2.02570000
H       -2.55120000       3.24990000      -1.08550000
H       -1.15110000       5.13170000      -0.79870000
H        1.23280000       5.12370000      -0.81410000
H        1.32200000       2.41760000      -2.02900000
H        2.62130000       3.20400000      -1.10470000
