23
Properties=species:S:1:pos:R:3 gdb_112564=T pbc="F F F"
C       -0.35840000       1.30330000       0.17180000
O        0.16150000       0.01130000      -0.06250000
C        0.82300000      -0.54720000       1.06600000
C       -0.17160000      -1.20590000       2.06260000
C       -0.02340000      -2.53400000       1.25280000
C       -0.00830000      -3.85090000       2.00160000
O       -1.01010000      -2.64320000       0.23930000
C        1.33530000      -1.96560000       0.70400000
C        1.78300000      -2.28250000      -0.71270000
H        0.44150000       2.00930000       0.44030000
H       -0.83010000       1.63680000      -0.75560000
H       -1.10880000       1.31010000       0.97530000
H        1.54940000       0.17500000       1.46340000
H        0.24570000      -1.27780000       3.07110000
H       -1.17990000      -0.78740000       2.11650000
H       -0.99510000      -4.05620000       2.42860000
H        0.24020000      -4.67260000       1.32210000
H        0.72650000      -3.83300000       2.81170000
H       -1.02760000      -1.79640000      -0.22620000
H        2.12640000      -2.22130000       1.41840000
H        1.00300000      -2.05120000      -1.44000000
H        2.67550000      -1.70700000      -0.98030000
H        2.02790000      -3.34540000      -0.80870000
