21
Properties=species:S:1:pos:R:3 gdb_52712=T pbc="F F F"
C       -0.10820000       1.48280000       0.14700000
C       -0.04360000       0.03210000       0.04720000
C        0.02340000      -1.16640000      -0.03850000
C        0.06200000      -2.62510000      -0.13200000
C       -1.29270000      -3.19460000      -0.58120000
O        1.12350000      -2.97600000      -1.02660000
C        1.58950000      -4.28240000      -0.88610000
C        1.08410000      -5.37710000      -1.79610000
C        2.46820000      -4.78650000      -1.98300000
H        0.62750000       1.95400000      -0.51400000
H       -1.09710000       1.85990000      -0.13590000
H        0.09870000       1.82270000       1.16780000
H        0.29880000      -3.03370000       0.86500000
H       -1.26120000      -4.28630000      -0.60310000
H       -2.07840000      -2.88100000       0.11190000
H       -1.53940000      -2.82410000      -1.57940000
H        1.84320000      -4.55490000       0.13970000
H        0.99080000      -6.38370000      -1.40230000
H        0.33240000      -5.09940000      -2.52560000
H        2.60910000      -4.12050000      -2.82660000
H        3.33610000      -5.38090000      -1.72130000
