13
Properties=species:S:1:pos:R:3 gdb_7016=T pbc="F F F"
N       -0.01540000       1.57220000      -0.18460000
C        0.02790000       0.31620000      -0.16690000
C       -1.15610000      -0.58360000       0.10600000
C       -2.42250000       0.10240000       0.29760000
C       -3.48620000       0.63260000       0.46220000
O        1.14360000      -0.48040000      -0.42800000
C        2.35750000      -0.11210000       0.08050000
O        3.36110000      -0.67500000      -0.21930000
H        0.87340000       2.00230000      -0.43840000
H       -1.22100000      -1.29490000      -0.72840000
H       -0.91090000      -1.19850000       0.98270000
H       -4.42060000       1.11680000       0.60380000
H        2.27820000       0.72220000       0.79760000
