17
Properties=species:S:1:pos:R:3 gdb_43047=T pbc="F F F"
O       -0.00130000       0.03900000       0.23450000
C       -0.04690000       1.23010000       0.09600000
C       -1.24260000       2.16510000      -0.00530000
C       -0.86120000       3.11400000       1.18320000
C        0.29820000       3.53910000       0.24970000
C       -0.65500000       3.28570000      -0.95510000
C        0.22960000       2.81460000      -2.10390000
O        1.40680000       2.30170000      -1.45480000
C        1.10800000       2.25660000      -0.05300000
H       -2.22930000       1.72350000      -0.12470000
H       -1.59340000       3.91340000       1.31550000
H       -0.63050000       2.65690000       2.14930000
H        0.85590000       4.46580000       0.37420000
H       -1.36910000       4.07710000      -1.18200000
H       -0.24010000       2.03120000      -2.71260000
H        0.52470000       3.63820000      -2.76470000
H        2.02440000       2.05140000       0.49740000
