14
Properties=species:S:1:pos:R:3 gdb_125262=T pbc="F F F"
C       -0.04420000       1.48840000      -0.02650000
C       -0.06020000      -0.00580000       0.00990000
C       -1.15760000      -0.77380000      -0.11880000
C       -1.00880000      -2.20220000      -0.06220000
O       -2.13320000      -2.93150000      -0.19550000
N        0.10420000      -2.83220000       0.10430000
O        1.24690000      -2.04590000       0.23850000
C        1.24160000      -0.66880000       0.20310000
O        2.29180000      -0.09380000       0.33090000
H        0.61130000       1.83990000      -0.82980000
H       -1.04680000       1.89530000      -0.17260000
H        0.37710000       1.88460000       0.90310000
H       -2.15060000      -0.36230000      -0.26380000
H       -1.88120000      -3.86490000      -0.13780000
