20
Properties=species:S:1:pos:R:3 gdb_64335=T pbc="F F F"
C        0.03080000       1.51330000       0.04230000
C       -0.06910000      -0.01870000      -0.02910000
C       -1.55080000      -0.44060000      -0.03230000
C        0.66520000      -0.54890000      -1.27230000
C        1.05680000      -2.00340000      -1.07290000
O        1.93880000      -2.14390000       0.04360000
C        1.62710000      -1.50490000       1.20270000
O        2.23730000      -1.75080000       2.21360000
N        0.60140000      -0.59550000       1.14510000
H        1.07610000       1.83270000       0.07880000
H       -0.44340000       1.97280000      -0.83060000
H       -0.47650000       1.89610000       0.93510000
H       -2.08760000       0.02980000      -0.86260000
H       -1.65730000      -1.52530000      -0.11950000
H       -2.03610000      -0.13550000       0.90030000
H        0.02930000      -0.44220000      -2.15640000
H        1.57630000       0.03460000      -1.44420000
H        0.17540000      -2.64060000      -0.92280000
H        1.60970000      -2.39220000      -1.93100000
H        0.43940000      -0.15260000       2.03700000
