18
Properties=species:S:1:pos:R:3 gdb_123436=T pbc="F F F"
C        0.16690000       1.27610000       0.62010000
C       -0.05470000      -0.03700000      -0.10020000
C       -1.42360000      -0.54710000      -0.34530000
N       -0.60300000      -0.05460000      -1.47010000
C        1.45170000       1.95380000       0.23210000
N        2.15520000       2.63240000       1.13830000
N        3.21150000       3.11540000       0.45550000
C        3.20740000       2.76070000      -0.85120000
C        2.07380000       2.00130000      -1.04050000
H       -0.68710000       1.93790000       0.41240000
H        0.17580000       1.11910000       1.70440000
H        0.74060000      -0.76640000       0.04110000
H       -1.61760000      -1.61580000      -0.35360000
H       -2.26030000       0.06020000      -0.00830000
H       -0.91160000       0.88300000      -1.71980000
H        3.89780000       3.66320000       0.94530000
H        3.99350000       3.06420000      -1.52460000
H        1.74580000       1.53180000      -1.95330000
