16
Properties=species:S:1:pos:R:3 gdb_30330=T pbc="F F F"
O        0.08610000       1.46170000      -0.11670000
C        0.00470000       0.04150000      -0.02060000
C        0.54240000      -0.51300000       1.36010000
N       -0.38770000      -1.58600000       1.81320000
C       -1.56070000      -1.33940000       1.08410000
C       -1.38960000      -0.44990000       0.06720000
N       -2.57780000      -0.48060000      -0.63520000
C       -3.39640000      -1.33670000       0.04890000
N       -2.80530000      -1.89440000       1.09600000
H        0.99490000       1.69110000      -0.33750000
H        0.56110000      -0.40520000      -0.86110000
H        1.56200000      -0.90070000       1.28210000
H        0.54050000       0.34170000       2.04850000
H       -0.51400000      -1.61300000       2.81850000
H       -2.84180000       0.09450000      -1.41680000
H       -4.41910000      -1.50770000      -0.25270000
