24
Properties=species:S:1:pos:R:3 gdb_113698=T pbc="F F F"
C        1.24670000       1.47440000      -0.96640000
C        0.29570000       0.34280000      -0.53440000
C        0.40050000       0.08520000       0.97670000
C       -1.14880000       0.77330000      -0.86360000
N        0.48170000      -0.93900000      -1.25320000
C        1.36680000      -1.14780000      -2.38610000
C        1.52540000      -1.94340000      -1.13360000
C        2.80690000      -1.91840000      -0.31070000
O        3.58880000      -0.73620000      -0.39300000
H        2.29600000       1.20010000      -0.85120000
H        1.08410000       1.73750000      -2.01640000
H        1.05380000       2.37190000      -0.36930000
H        0.03940000       0.95250000       1.53790000
H       -0.20440000      -0.78150000       1.25920000
H        1.43060000      -0.10380000       1.29550000
H       -1.27370000       0.88190000      -1.94520000
H       -1.86000000       0.01820000      -0.51850000
H       -1.39350000       1.73170000      -0.39240000
H        0.92130000      -1.58250000      -3.27970000
H        2.15170000      -0.41890000      -2.57740000
H        1.11660000      -2.95790000      -1.12110000
H        2.57910000      -2.16690000       0.73500000
H        3.43410000      -2.73440000      -0.69390000
H        3.37050000      -0.17500000       0.35540000
