16
Properties=species:S:1:pos:R:3 gdb_41079=T pbc="F F F"
C        0.13140000       1.47470000      -0.22160000
O        1.50400000       1.35570000       0.27250000
C        1.15240000       0.15540000       1.03570000
C        1.56510000      -1.24130000       0.54630000
C        0.30650000      -2.11720000       0.88300000
C       -0.86020000      -1.23750000       0.48900000
N       -0.23180000      -2.14980000      -0.51670000
C        0.76560000      -1.01400000      -0.76500000
C       -0.05600000       0.00330000       0.10490000
H       -0.45010000       2.17420000       0.39390000
H        0.09560000       1.77890000      -1.27240000
H        1.08280000       0.36610000       2.10780000
H        2.54820000      -1.70100000       0.63560000
H        0.23350000      -2.97310000       1.54350000
H       -1.87370000      -1.37470000       0.84560000
H        1.14880000      -0.82280000      -1.76350000
