18
Properties=species:S:1:pos:R:3 gdb_19946=T pbc="F F F"
O        0.27270000       0.06200000      -0.16020000
C        0.06900000       1.23110000      -0.00920000
C       -1.19830000       2.07740000       0.20380000
C       -0.27460000       3.20590000       0.75150000
C        0.98990000       2.45380000       0.21390000
C        2.20700000       2.28960000       1.08000000
C        3.53220000       1.90810000       0.47000000
C        3.33380000       3.29540000       1.02470000
H       -1.67730000       2.32960000      -0.74810000
H       -1.95390000       1.65310000       0.86940000
H       -0.44270000       4.20790000       0.35560000
H       -0.28250000       3.25190000       1.84320000
H        1.27860000       2.85370000      -0.76770000
H        1.99830000       1.86460000       2.05870000
H        4.16510000       1.21780000       1.01560000
H        3.57710000       1.79050000      -0.60740000
H        3.24460000       4.11740000       0.32190000
H        3.83230000       3.55780000       1.95120000
