16
Properties=species:S:1:pos:R:3 gdb_80205=T pbc="F F F"
C       -0.12730000       1.48870000       0.01350000
N        0.13040000       0.05180000       0.06590000
C        1.40740000      -0.54470000      -0.17610000
C        2.57660000       0.31990000       0.31710000
C        1.93190000       0.25510000       1.72610000
O        2.29950000       0.58510000       2.81280000
C        0.75500000      -0.59150000       1.22750000
C        0.07600000      -1.61010000       1.95210000
C       -0.46810000      -2.46230000       2.60270000
H        0.67610000       2.13030000       0.39770000
H       -0.32060000       1.76060000      -1.02850000
H       -1.03230000       1.69060000       0.59210000
H        1.47460000      -1.37740000      -0.86680000
H        3.53650000      -0.20460000       0.33260000
H        2.71150000       1.29830000      -0.14960000
H       -0.95660000      -3.21470000       3.17100000
