19
Properties=species:S:1:pos:R:3 gdb_82656=T pbc="F F F"
C       -0.18680000       1.61750000      -0.04200000
C        0.04540000       0.11390000      -0.00440000
C        1.10940000      -0.60590000      -0.89180000
C        2.42450000       0.11040000      -0.51220000
C        2.37810000      -0.28910000       0.98640000
C        0.81370000      -0.56350000       1.14290000
C        1.12620000      -1.78360000       0.17320000
C        2.49290000      -1.81490000       0.83050000
O        3.22200000      -2.66690000       1.24960000
H        0.71610000       2.19050000       0.18540000
H       -0.54990000       1.93560000      -1.02600000
H       -0.94560000       1.90240000       0.69500000
H       -0.91280000      -0.40470000      -0.12590000
H        0.92320000      -0.80760000      -1.94660000
H        3.30490000      -0.29720000      -1.01830000
H        2.39480000       1.18590000      -0.69530000
H        2.96260000       0.26830000       1.71410000
H        0.43250000      -0.70010000       2.15330000
H        0.47440000      -2.64270000       0.03550000
