17
Properties=species:S:1:pos:R:3 gdb_100626=T pbc="F F F"
N        0.05570000       2.69970000      -0.82070000
C        0.72710000      -0.33870000       0.18220000
C        0.96040000      -0.87260000      -1.19750000
N       -0.00430000      -0.28160000      -2.13730000
H        0.25720000      -0.52350000      -3.08780000
H       -0.92460000      -0.68260000      -1.98170000
H       -0.10070000       2.01760000      -1.56330000
C        0.70290000      -1.08850000       1.30320000
C        0.49310000      -0.49420000       2.59060000
N        0.32130000      -0.02110000       3.63230000
C        0.88620000      -2.51140000       1.28250000
N        1.03080000      -3.65940000       1.25870000
H        0.68470000       3.40610000      -1.19210000
H       -0.83100000       3.16850000      -0.65790000
H        0.56970000       0.73890000       0.25260000
H        1.96230000      -0.54250000      -1.50740000
H        0.97520000      -1.97140000      -1.19290000
