21
Properties=species:S:1:pos:R:3 gdb_69491=T pbc="F F F"
C       -0.02160000       1.53290000       0.01700000
C        0.04970000       0.02330000       0.00460000
C       -0.61610000      -0.76950000       1.10470000
C        0.89070000      -0.77090000       0.99410000
C        1.60940000      -1.89460000       0.24750000
C        1.17760000      -1.79790000      -1.22500000
O        2.16780000      -1.98980000      -2.19480000
C       -0.25500000      -2.06460000      -1.59780000
C        0.22210000      -0.64010000      -1.35360000
H        0.82790000       1.97530000      -0.51660000
H       -0.93920000       1.89400000      -0.46280000
H       -0.01010000       1.91950000       1.04090000
H       -1.03940000      -0.19930000       1.92620000
H       -1.17940000      -1.66700000       0.87420000
H        1.44350000      -0.26110000       1.77660000
H        2.69020000      -1.72290000       0.27580000
H        1.42580000      -2.88510000       0.68180000
H        2.23610000      -2.93500000      -2.36730000
H       -0.42520000      -2.32400000      -2.63800000
H       -0.92820000      -2.55270000      -0.90190000
H        0.27640000       0.01020000      -2.21940000
