17
Properties=species:S:1:pos:R:3 gdb_70980=T pbc="F F F"
C       -0.29710000       1.44180000       0.04110000
C       -0.08240000      -0.03200000       0.02360000
O        0.87320000      -0.58570000      -0.89270000
C        0.30910000      -1.88600000      -0.58200000
C        0.75910000      -2.15490000       0.88220000
C       -0.15580000      -0.98770000       1.23840000
C       -1.00550000      -1.20220000      -0.01230000
C        0.41110000      -2.89230000      -1.68020000
O        0.10810000      -4.05100000      -1.54460000
H        0.61610000       1.96170000       0.34890000
H       -0.58480000       1.80680000      -0.94950000
H       -1.09040000       1.69920000       0.74910000
H        0.36580000      -3.10930000       1.23710000
H        1.83370000      -2.07360000       1.07090000
H       -0.48640000      -0.65850000       2.21550000
H       -2.06300000      -1.34410000      -0.18690000
H        0.77970000      -2.47920000      -2.64410000
