21
Properties=species:S:1:pos:R:3 gdb_120330=T pbc="F F F"
C       -0.22150000       1.33740000      -0.07470000
O       -0.24100000      -0.05490000      -0.27070000
C        0.88890000      -0.51830000      -0.99250000
C        0.80250000      -2.02210000      -1.07360000
C       -0.11880000      -2.75670000      -2.01840000
C       -0.62990000      -2.00970000      -3.23580000
O        0.51370000      -1.42360000      -3.86040000
C        1.67150000      -2.18570000      -3.52850000
C        1.37960000      -2.85500000      -2.19750000
H        0.65920000       1.65820000       0.50550000
H       -0.21700000       1.88780000      -1.02930000
H       -1.12420000       1.60400000       0.48110000
H        0.91680000      -0.06130000      -1.99050000
H        1.81510000      -0.22670000      -0.46690000
H        0.88140000      -2.49390000      -0.09740000
H       -0.70810000      -3.58500000      -1.64300000
H       -1.13740000      -2.70880000      -3.91920000
H       -1.32100000      -1.19420000      -2.99860000
H        1.87230000      -2.95700000      -4.28980000
H        2.52070000      -1.49320000      -3.51720000
H        1.92830000      -3.75740000      -1.95360000
