20
Properties=species:S:1:pos:R:3 gdb_6373=T pbc="F F F"
C       -0.08710000       1.46360000       0.13110000
C        0.01050000      -0.04230000      -0.09910000
C        0.77970000      -0.39780000      -1.35690000
O        1.27270000       0.39800000      -2.11870000
O        0.83730000      -1.73550000      -1.51490000
C        1.54060000      -2.23660000      -2.68350000
C        3.03680000      -2.29780000      -2.39350000
C        0.92760000      -3.59410000      -2.99440000
H        0.90600000       1.91090000       0.22160000
H       -0.59030000       1.95570000      -0.70500000
H       -0.64730000       1.67570000       1.04600000
H        0.50000000      -0.54700000       0.74230000
H       -0.98150000      -0.50320000      -0.17470000
H        1.35740000      -1.53370000      -3.50100000
H        3.57130000      -2.69790000      -3.26080000
H        3.42650000      -1.29970000      -2.18240000
H        3.23670000      -2.94840000      -1.53600000
H       -0.14680000      -3.50300000      -3.17540000
H        1.39340000      -4.02100000      -3.88750000
H        1.07880000      -4.28880000      -2.16210000
