16
Properties=species:S:1:pos:R:3 gdb_32018=T pbc="F F F"
C        0.13420000       1.49300000       0.00640000
C       -0.06950000      -0.02010000       0.00380000
C       -1.50480000      -0.45010000       0.01440000
N       -2.49290000       0.37750000       0.02440000
C       -3.73900000      -0.22280000       0.03290000
N       -3.99830000      -1.48530000       0.03210000
C       -2.91870000      -2.35740000       0.02140000
N       -2.94240000      -3.61780000       0.01890000
O       -1.63260000      -1.78300000       0.01230000
H        1.20250000       1.72410000      -0.00180000
H       -0.32810000       1.95390000      -0.86950000
H       -0.31350000       1.94900000       0.89230000
H        0.39980000      -0.48710000      -0.87170000
H        0.41420000      -0.49210000       0.86870000
H       -4.58070000       0.46710000       0.04120000
H       -3.91610000      -3.91850000       0.02620000
