20
Properties=species:S:1:pos:R:3 gdb_96050=T pbc="F F F"
C       -0.21010000       1.44080000       0.24090000
C        0.07650000      -0.04380000       0.13130000
O        0.88310000      -0.29520000      -1.01930000
C        1.30890000      -1.65350000      -0.93450000
C        1.35190000      -2.00780000       0.57760000
C        0.88680000      -0.70340000       1.26780000
N        2.00840000       0.12550000       1.67960000
C        2.19110000       0.55880000       2.95570000
O        1.47790000       0.28800000       3.89910000
H        0.71490000       2.01530000       0.33050000
H       -0.74630000       1.78600000      -0.64680000
H       -0.82760000       1.64230000       1.12100000
H       -0.87730000      -0.59400000       0.04120000
H        0.60510000      -2.30600000      -1.47080000
H        2.28190000      -1.72860000      -1.42820000
H        0.66570000      -2.82640000       0.80820000
H        2.34580000      -2.30210000       0.91920000
H        0.29600000      -0.88320000       2.16580000
H        2.64240000       0.44980000       0.96550000
H        3.09220000       1.19800000       3.04450000
