23
Properties=species:S:1:pos:R:3 gdb_116145=T pbc="F F F"
C       -0.01460000       1.52440000       0.06990000
C        0.02890000       0.00520000      -0.00690000
C        0.72200000      -0.51370000      -1.27450000
C        0.83880000      -2.04530000      -1.25350000
C        1.58950000      -2.56810000      -2.47300000
O        1.56380000      -3.98840000      -2.43960000
C        1.48530000      -2.48990000       0.06650000
C        0.75100000      -1.86510000       1.25260000
O        0.70230000      -0.45070000       1.16070000
H        1.00010000       1.93490000       0.06700000
H       -0.56010000       1.93870000      -0.78330000
H       -0.50960000       1.84470000       0.99050000
H       -1.00490000      -0.38830000       0.00500000
H        0.16530000      -0.17930000      -2.15870000
H        1.72320000      -0.06440000      -1.33100000
H       -0.17540000      -2.46950000      -1.29580000
H        1.11380000      -2.18470000      -3.39070000
H        2.62510000      -2.18860000      -2.45750000
H        2.08460000      -4.31750000      -3.17750000
H        1.47870000      -3.58090000       0.14540000
H        2.53420000      -2.16460000       0.08680000
H       -0.27350000      -2.27320000       1.31480000
H        1.25640000      -2.09050000       2.19650000
