21
Properties=species:S:1:pos:R:3 gdb_90705=T pbc="F F F"
C       -0.34270000       1.41030000      -0.05680000
C        0.07160000      -0.05600000      -0.09500000
C        1.38640000      -0.34550000      -0.88330000
C        2.14520000      -0.62200000       0.44900000
C        0.77820000      -0.57020000       1.20210000
C        0.52910000      -2.01180000       1.55640000
C        1.56670000      -2.79880000       1.27200000
C        2.73250000      -2.04210000       0.66660000
O        3.28460000      -2.66190000      -0.48880000
H        0.48930000       2.04930000       0.26160000
H       -0.66610000       1.75580000      -1.04500000
H       -1.17080000       1.57080000       0.64270000
H       -0.77920000      -0.67190000      -0.40530000
H        1.31880000      -1.20980000      -1.54940000
H        1.76880000       0.49230000      -1.47180000
H        2.86080000       0.16110000       0.70140000
H        0.69090000       0.09620000       2.06730000
H       -0.40780000      -2.34730000       1.99110000
H        1.61850000      -3.86940000       1.44090000
H        3.57780000      -2.00270000       1.36540000
H        2.55890000      -2.85280000      -1.09230000
