20
Properties=species:S:1:pos:R:3 gdb_69305=T pbc="F F F"
C       -0.08120000       1.59000000       0.04360000
C        0.11300000       0.10770000      -0.01150000
N       -0.80850000      -0.85200000       0.69730000
C        0.63210000      -0.90930000       0.97420000
C        1.25820000      -1.79750000      -0.12700000
C        2.79000000      -1.75010000      -0.12810000
C        0.72130000      -3.21740000      -0.27350000
C        0.71780000      -0.71940000      -1.12780000
O        0.91280000      -0.52010000      -2.29270000
H        0.80110000       2.11120000      -0.34060000
H       -0.93880000       1.89530000      -0.56520000
H       -0.25710000       1.92730000       1.07090000
H       -1.25010000      -0.30600000       1.43870000
H        1.03520000      -0.71950000       1.96210000
H        3.19350000      -2.37310000       0.67760000
H        3.17920000      -2.12470000      -1.07900000
H        3.16630000      -0.73070000       0.00970000
H       -0.36750000      -3.23010000      -0.19360000
H        1.00390000      -3.62910000      -1.24790000
H        1.13690000      -3.87320000       0.50030000
