19
Properties=species:S:1:pos:R:3 gdb_36138=T pbc="F F F"
C        0.01220000      -1.22910000       0.47050000
C       -0.02760000      -0.05060000       0.23790000
C       -0.04880000       1.38200000      -0.05120000
C        1.33760000       1.98080000      -0.21450000
C        2.11790000       2.45030000       1.00280000
C        1.62660000       3.44320000      -0.02400000
O        2.51650000       3.90820000      -1.00190000
C        3.14670000       2.76980000      -1.59420000
C        2.17260000       1.58280000      -1.42590000
H        0.03740000      -2.27010000       0.67810000
H       -0.63250000       1.55740000      -0.96570000
H       -0.58090000       1.90450000       0.75400000
H        1.59790000       2.42820000       1.95520000
H        3.17950000       2.23910000       1.07400000
H        0.87590000       4.18340000       0.22900000
H        3.36310000       3.01220000      -2.63800000
H        4.10210000       2.56490000      -1.09190000
H        2.70120000       0.63340000      -1.30370000
H        1.51450000       1.48870000      -2.29740000
