25
Properties=species:S:1:pos:R:3 gdb_104302=T pbc="F F F"
C       -0.14310000       1.55160000      -0.07830000
C        0.02080000       0.02960000       0.01230000
C        0.76990000      -0.49420000       1.25580000
C        2.22880000       0.00230000       1.27120000
C        0.05660000      -0.11760000       2.58860000
C        0.38630000      -1.25050000       3.58870000
C        0.57690000      -2.48730000       2.72290000
C       -0.47350000      -2.76250000       1.67470000
C        0.79020000      -2.02720000       1.29840000
H        0.82120000       2.06540000      -0.13940000
H       -0.71460000       1.82450000      -0.97130000
H       -0.67860000       1.95220000       0.78890000
H       -0.97150000      -0.43760000      -0.01020000
H        0.54250000      -0.32830000      -0.88560000
H        2.28490000       1.09370000       1.32910000
H        2.77440000      -0.40270000       2.12950000
H        2.76010000      -0.31240000       0.36560000
H        0.36570000       0.86320000       2.96060000
H       -1.02530000      -0.06050000       2.42700000
H        1.31890000      -1.03330000       4.12270000
H       -0.39420000      -1.36830000       4.34880000
H        1.12700000      -3.32830000       3.13130000
H       -0.56860000      -3.78500000       1.32540000
H       -1.41710000      -2.22720000       1.71470000
H        1.49540000      -2.53410000       0.64660000
