18
Properties=species:S:1:pos:R:3 gdb_63566=T pbc="F F F"
C       -0.06590000       1.51950000      -0.04230000
C       -0.07710000       0.00970000       0.03630000
C       -1.19730000      -0.70160000      -0.68610000
O        1.22420000      -0.60980000      -0.10110000
C        0.60380000      -0.65790000       1.15830000
C        1.18570000      -0.14370000       2.47600000
O        0.72680000      -1.37500000       3.12220000
C        0.25570000      -1.90150000       1.93080000
N       -0.26430000      -3.00970000       1.66610000
H        0.80490000       1.93650000       0.46930000
H       -0.03350000       1.84200000      -1.08840000
H       -0.97280000       1.93630000       0.40810000
H       -1.14200000      -0.49090000      -1.75950000
H       -1.13630000      -1.77960000      -0.52840000
H       -2.16870000      -0.34880000      -0.32410000
H        2.27520000      -0.06430000       2.50220000
H        0.71700000       0.73540000       2.92470000
H       -0.33180000      -3.60570000       2.49250000
