16
Properties=species:S:1:pos:R:3 gdb_85994=T pbc="F F F"
C        0.01970000       1.39140000      -0.00340000
N        0.05870000      -0.04900000      -0.02400000
C       -1.00440000      -1.06060000      -0.12740000
C        0.10390000      -2.14770000       0.00810000
O        0.03030000      -3.02750000       1.09790000
C        0.37660000      -2.91510000      -1.27700000
O        0.08250000      -2.52450000      -2.37650000
C        1.06690000      -0.92650000       0.21780000
O        2.22010000      -0.81990000       0.54880000
H        1.03910000       1.75340000       0.14730000
H       -0.36360000       1.78770000      -0.95020000
H       -0.61220000       1.76130000       0.81300000
H       -1.70000000      -1.05910000       0.71690000
H       -1.53220000      -1.05660000      -1.08390000
H        0.80740000      -2.88160000       1.65050000
H        0.88830000      -3.88540000      -1.09980000
