17
Properties=species:S:1:pos:R:3 gdb_41210=T pbc="F F F"
C        0.01480000       1.58070000       0.10890000
O        1.49710000       1.49270000       0.00540000
C        1.22570000       0.30620000      -0.86030000
C        1.22590000      -1.25300000      -1.11700000
C        1.66090000      -2.13640000       0.02520000
O        1.40490000      -1.50960000       1.26530000
C        0.25580000      -0.67370000       1.26040000
C        0.02830000       0.02290000      -0.08350000
O       -0.26820000      -1.09380000      -1.04650000
H       -0.29150000       1.98890000       1.07510000
H       -0.40580000       2.15050000      -0.72590000
H        0.97750000       0.72640000      -1.84110000
H        1.54160000      -1.60550000      -2.10130000
H        1.13240000      -3.09950000      -0.05950000
H        2.73890000      -2.32840000      -0.02000000
H       -0.65610000      -1.25490000       1.47370000
H        0.41410000       0.04420000       2.06780000
