19
Properties=species:S:1:pos:R:3 gdb_38231=T pbc="F F F"
C        0.01810000       1.77090000      -0.03510000
C        1.49800000       1.48780000       0.08360000
C        1.04930000       0.26560000       1.04540000
C       -0.04290000       0.19980000      -0.09870000
O       -1.30370000      -0.24420000      -0.57590000
C       -1.18730000       0.32340000      -1.93460000
C        0.35000000       0.38780000      -2.28350000
C        1.67850000       0.85640000      -1.34810000
C        0.92020000      -0.37520000      -1.18770000
H       -0.46170000       2.09090000       0.89350000
H       -0.30900000       2.38740000      -0.86860000
H        2.22080000       2.22660000       0.42850000
H        1.70810000      -0.59860000       1.15350000
H        0.72570000       0.63520000       2.02000000
H       -1.65180000      -0.39480000      -2.61810000
H       -1.73770000       1.26740000      -1.98110000
H        0.62180000       0.21350000      -3.32110000
H        2.60450000       0.92680000      -1.91090000
H        1.23250000      -1.41240000      -1.11650000
