13
Properties=species:S:1:pos:R:3 gdb_42179=T pbc="F F F"
O        0.20900000       0.75280000       1.40270000
C       -0.01100000       1.41560000       0.41570000
C        1.06650000       1.70010000      -0.54350000
N        1.93740000       1.88430000      -1.28100000
C       -1.36970000       1.97040000       0.09660000
C       -2.47300000       0.92860000       0.20040000
N       -2.33050000       1.94080000       1.22160000
C       -1.45370000       3.04890000      -0.84640000
C       -1.49870000       3.93950000      -1.65080000
H       -3.31910000       1.04930000      -0.46840000
H       -2.16350000      -0.09100000       0.41250000
H       -1.83820000       1.54430000       2.02380000
H       -1.53600000       4.73130000      -2.35840000
