16
Properties=species:S:1:pos:R:3 gdb_6820=T pbc="F F F"
C        0.22720000       1.52470000      -0.22400000
C       -0.03150000       0.03450000      -0.08010000
O       -1.39540000      -0.28470000      -0.08050000
C        0.78200000      -0.85530000      -1.05080000
N        1.80470000      -1.03960000       0.00750000
C        0.82800000      -0.66760000       1.05130000
C        1.34520000       0.12820000       2.16060000
N        1.71870000       0.78090000       3.03900000
H        1.29970000       1.73040000      -0.26100000
H       -0.23610000       1.89190000      -1.14480000
H       -0.18800000       2.07870000       0.62610000
H       -1.87650000       0.40990000       0.38230000
H        0.21110000      -1.75790000      -1.30270000
H        1.15710000      -0.38890000      -1.96660000
H        2.18860000      -1.97350000       0.09680000
H        0.24170000      -1.50430000       1.45440000
