21
Properties=species:S:1:pos:R:3 gdb_85310=T pbc="F F F"
C       -0.01730000       1.58470000      -0.04370000
C        0.05160000       0.05880000      -0.01880000
C        0.77870000      -0.58300000      -1.21570000
C        1.22130000      -1.96740000      -0.72450000
O        1.47920000      -2.91430000      -1.42330000
C        1.27670000      -1.95360000       0.80390000
C        2.68520000      -1.59100000       1.36990000
C        2.22750000      -0.11320000       1.51630000
C        0.75680000      -0.54610000       1.21540000
H        0.98360000       2.03010000      -0.05220000
H       -0.54450000       1.94270000      -0.93390000
H       -0.54650000       1.96990000       0.83470000
H       -0.97670000      -0.33020000      -0.01300000
H        0.18220000      -0.66300000      -2.12740000
H        1.68400000      -0.01620000      -1.47720000
H        0.80990000      -2.85540000       1.20500000
H        2.86720000      -2.07530000       2.33180000
H        3.53870000      -1.79270000       0.71760000
H        2.39940000       0.34830000       2.49080000
H        2.65290000       0.54640000       0.75500000
H        0.12060000      -0.51820000       2.10280000
