20
Properties=species:S:1:pos:R:3 gdb_58682=T pbc="F F F"
C       -0.52060000       1.42710000       0.13320000
C        0.09210000       0.05360000      -0.15880000
O        0.96770000       0.07250000      -1.27390000
C        0.80710000      -0.51570000       1.06590000
N       -0.03480000      -1.03250000       2.16710000
C        0.79310000      -1.98010000       1.43730000
C        0.11880000      -3.03500000       0.59470000
C        2.06790000       0.15890000       1.47190000
O        2.64320000       1.01460000       0.83820000
H        0.25240000       2.15230000       0.40410000
H       -1.03720000       1.79280000      -0.75800000
H       -1.24060000       1.35910000       0.95450000
H       -0.71540000      -0.63150000      -0.43090000
H        1.70020000       0.65440000      -1.03000000
H        0.36490000      -0.80220000       3.07610000
H        1.69400000      -2.32880000       1.94480000
H       -0.83880000      -2.68420000       0.20700000
H        0.75660000      -3.32090000      -0.24680000
H       -0.07170000      -3.92690000       1.20060000
H        2.47280000      -0.19260000       2.45210000
