18
Properties=species:S:1:pos:R:3 gdb_85749=T pbc="F F F"
C        0.27170000       1.55010000      -0.15130000
C        0.09330000       0.04780000      -0.00180000
O        0.70630000      -0.59010000      -1.12960000
C        1.20550000      -1.87660000      -0.75910000
C        2.36670000      -2.21630000      -1.57440000
C        3.31420000      -2.54780000      -2.23350000
C        1.47250000      -1.78310000       0.74070000
N        2.23350000      -0.57550000       1.09990000
C        0.76070000      -0.57940000       1.21180000
H        1.33420000       1.79980000      -0.10850000
H       -0.13290000       1.88600000      -1.10960000
H       -0.25520000       2.07940000       0.64940000
H       -0.98000000      -0.20660000       0.03200000
H        0.42790000      -2.64510000      -0.91270000
H        4.15780000      -2.82270000      -2.81680000
H        1.56750000      -2.69300000       1.32230000
H        2.64400000      -0.70300000       2.02160000
H        0.28230000      -0.52350000       2.18390000
