17
Properties=species:S:1:pos:R:3 gdb_47631=T pbc="F F F"
N       -0.10560000       1.06810000       0.87630000
C       -0.01480000       0.02740000       0.14370000
N       -1.05990000      -0.87050000       0.07900000
C       -1.36640000      -1.62510000      -1.12890000
C       -0.55260000      -2.91140000      -1.23370000
C        0.92720000      -2.71700000      -1.33650000
C        1.66320000      -1.62150000      -1.10470000
C        1.29490000      -0.28120000      -0.59730000
O        2.11470000       0.61580000      -0.67100000
H        0.78480000       1.56770000       0.83340000
H       -1.86280000      -0.51350000       0.57870000
H       -2.42900000      -1.87870000      -1.09390000
H       -1.21450000      -1.02070000      -2.03550000
H       -0.76660000      -3.55470000      -0.36780000
H       -0.88670000      -3.47710000      -2.11400000
H        1.47170000      -3.59780000      -1.67400000
H        2.73040000      -1.66950000      -1.30490000
