14
Properties=species:S:1:pos:R:3 gdb_34517=T pbc="F F F"
N        0.02660000      -1.16230000      -0.03900000
C       -0.02700000      -0.00440000      -0.01600000
C       -0.05120000       1.40730000       0.01240000
C       -1.10550000       2.24470000       0.01800000
C       -0.49520000       3.62100000       0.05260000
C        0.80890000       3.58200000      -0.82790000
O        1.51540000       4.47580000       0.09170000
C        0.78960000       3.54570000       0.95880000
C        1.16050000       2.32830000       0.04420000
H       -2.15670000       1.99530000       0.00160000
H       -1.10780000       4.51920000       0.06420000
H        0.92750000       3.74460000      -1.90110000
H        0.88480000       3.66460000       2.03990000
H        2.17230000       1.93110000       0.04710000
