19
Properties=species:S:1:pos:R:3 gdb_101048=T pbc="F F F"
C       -0.07250000       1.61810000       0.47910000
C       -0.04750000       0.14130000       0.06590000
C        0.87380000      -0.69680000       0.97450000
O        2.22450000      -0.27200000       0.91430000
C       -1.45010000      -0.46320000       0.02420000
C       -2.25380000      -0.38700000      -1.23440000
N       -1.71170000      -1.67240000      -0.78880000
C       -2.16410000      -0.44270000       1.28840000
N       -2.71060000      -0.38480000       2.30560000
H        0.93860000       2.03400000       0.45720000
H       -0.68980000       2.21110000      -0.20190000
H       -0.47640000       1.73880000       1.49010000
H        0.35370000       0.07020000      -0.95400000
H        0.48940000      -0.68470000       2.00480000
H        0.86730000      -1.74030000       0.64120000
H        2.32990000       0.48530000       1.49680000
H       -3.33440000      -0.30290000      -1.17830000
H       -1.79190000       0.12370000      -2.07540000
H       -0.86910000      -1.90320000      -1.31130000
