21
Properties=species:S:1:pos:R:3 gdb_63758=T pbc="F F F"
C       -0.30200000       1.56770000       0.02370000
C       -0.03230000       0.06450000       0.01710000
C       -1.33170000      -0.70560000      -0.24400000
C        1.12340000      -0.48330000      -0.90290000
C        1.72530000      -1.20360000       0.31030000
C        2.16510000      -0.20290000       1.35810000
C        2.78880000       1.05620000       1.05650000
C        3.37090000       2.08420000       0.82470000
C        0.69320000      -0.56160000       1.22840000
H        0.60650000       2.14520000       0.19880000
H       -0.72790000       1.88380000      -0.93610000
H       -1.02600000       1.82660000       0.80530000
H       -1.75680000      -0.42880000      -1.21520000
H       -1.16370000      -1.78790000      -0.24310000
H       -2.08070000      -0.48260000       0.52480000
H        0.75950000      -1.15590000      -1.68250000
H        1.77380000       0.26980000      -1.35690000
H        2.11890000      -2.21300000       0.31740000
H        2.60380000      -0.68920000       2.22780000
H        3.86890000       2.99920000       0.61970000
H        0.18220000      -0.99220000       2.08390000
