21
Properties=species:S:1:pos:R:3 gdb_84570=T pbc="F F F"
C       -0.37960000       1.56320000      -0.02720000
C       -0.03720000       0.06670000      -0.01390000
C        0.68800000      -0.43090000      -1.25560000
C        1.76270000      -1.17880000      -0.99400000
C        2.00980000      -1.30620000       0.48330000
C        3.10120000      -0.41980000       1.14330000
C        2.99230000       1.00180000       0.68280000
C        2.01080000       0.49990000       1.70910000
C        0.90450000      -0.40560000       1.12730000
H        0.51750000       2.18400000      -0.09440000
H       -1.02410000       1.80700000      -0.87870000
H       -0.91600000       1.84710000       0.88440000
H       -0.99080000      -0.47690000       0.06750000
H        0.32500000      -0.19800000      -2.25310000
H        2.40160000      -1.63000000      -1.74640000
H        2.04100000      -2.34040000       0.83760000
H        3.98950000      -0.79930000       1.63360000
H        3.74920000       1.67000000       1.08220000
H        2.68880000       1.23170000      -0.33320000
H        1.96440000       0.95370000       2.69230000
H        0.35920000      -0.90190000       1.93230000
