18
Properties=species:S:1:pos:R:3 gdb_54794=T pbc="F F F"
O        0.54260000       1.26060000      -1.16820000
C        0.06980000       1.10140000      -0.04030000
O        0.46800000       0.54780000       0.99670000
C       -1.37240000       1.82350000       0.08410000
C       -2.17440000       1.64840000       1.41230000
C       -1.19560000       2.69770000       2.02010000
C       -1.24010000       3.26030000       0.59030000
N       -2.73270000       3.72480000       0.52850000
H       -2.91630000       4.57900000       1.05740000
H       -3.02340000       3.87250000      -0.43710000
C       -3.42460000       2.49300000       1.15330000
H       -1.90500000       1.68850000      -0.86310000
H       -2.32330000       0.67310000       1.86710000
H       -1.52480000       3.33280000       2.85050000
H       -0.23650000       2.21470000       2.20450000
H       -0.59400000       4.02710000       0.16640000
H       -4.12030000       2.07680000       0.42340000
H       -3.97040000       2.82420000       2.04000000
