21
Properties=species:S:1:pos:R:3 gdb_104784=T pbc="F F F"
C       -0.56330000       1.16330000       0.33120000
C       -0.02910000      -0.25700000       0.11960000
C        0.95440000      -0.70080000       1.19890000
C        0.38690000      -0.92000000       2.64890000
C        0.81380000      -2.38700000       2.55290000
O        0.14340000      -2.95240000       1.41490000
C        1.34720000      -2.20920000       1.19750000
O        2.08980000       0.13950000       1.32840000
C        2.89980000       0.26650000       0.17640000
H        0.24930000       1.89530000       0.35380000
H       -1.25280000       1.44380000      -0.47060000
H       -1.10480000       1.24710000       1.27940000
H       -0.85060000      -0.97960000       0.11530000
H        0.44860000      -0.33310000      -0.86560000
H        0.97260000      -0.34090000       3.36450000
H       -0.68140000      -0.75120000       2.80110000
H        1.10530000      -3.07130000       3.34080000
H        2.15850000      -2.70870000       0.68030000
H        3.80440000       0.79410000       0.48860000
H        3.19080000      -0.70730000      -0.24140000
H        2.41330000       0.84980000      -0.61700000
