13
Properties=species:S:1:pos:R:3 gdb_18190=T pbc="F F F"
N       -0.05980000      -1.18740000      -0.13470000
C       -0.04670000      -0.03600000      -0.04430000
C        0.01120000       1.42680000       0.05180000
N       -0.56880000       1.90260000       1.33320000
C        0.30700000       2.65360000       1.86940000
N        1.53840000       2.89880000       1.19430000
C        2.35430000       1.65090000       1.13000000
C        1.43850000       2.00110000       0.02210000
H       -0.58010000       1.83900000      -0.77480000
H        0.14730000       3.14600000       2.82400000
H        3.42000000       1.81730000       1.01630000
H        2.07340000       0.83810000       1.79390000
H        1.82870000       2.37850000      -0.91560000
