16
Properties=species:S:1:pos:R:3 gdb_78731=T pbc="F F F"
O        0.10160000       1.31510000       0.12050000
C        0.09110000      -0.08660000      -0.00850000
C       -1.30800000      -0.67310000      -0.12840000
N       -1.30420000      -0.54650000      -1.63240000
C        0.25860000      -0.60120000      -1.45510000
C        0.20660000      -2.13190000      -1.38570000
C       -1.24650000      -1.91550000      -0.96930000
C       -2.31180000      -2.85920000      -1.03310000
C       -3.18560000      -3.68420000      -1.08040000
H       -0.53650000       1.67280000      -0.50940000
H        0.77340000      -0.46910000       0.75660000
H       -2.18840000      -0.42940000       0.45580000
H        0.89310000      -0.06820000      -2.16010000
H        0.25420000      -2.59200000      -2.37490000
H        0.88380000      -2.64780000      -0.69760000
H       -3.96420000      -4.40510000      -1.12490000
