22
Properties=species:S:1:pos:R:3 gdb_119279=T pbc="F F F"
C        0.27520000       1.56990000       0.04640000
C        0.12780000       0.04720000      -0.02330000
C        0.66020000      -0.65120000       1.23260000
C        0.56250000      -2.18960000       1.20910000
C        1.60720000      -2.87670000       0.25710000
C        2.51220000      -3.15810000       1.48450000
C        1.31000000      -2.85820000       2.41720000
C       -0.82020000      -2.61950000       1.03040000
N       -1.91300000      -2.97430000       0.89420000
H        1.32550000       1.86480000       0.15070000
H       -0.11600000       2.04630000      -0.85740000
H       -0.27040000       1.98160000       0.90240000
H       -0.92720000      -0.21610000      -0.16200000
H        0.65630000      -0.33100000      -0.90750000
H        1.71470000      -0.38710000       1.38490000
H        0.11900000      -0.28430000       2.11390000
H        1.21000000      -3.78990000      -0.18980000
H        2.00990000      -2.24490000      -0.53730000
H        2.94480000      -4.15750000       1.55250000
H        3.31850000      -2.42840000       1.58940000
H        1.48090000      -2.20620000       3.27700000
H        0.80540000      -3.76450000       2.75730000
