13
Properties=species:S:1:pos:R:3 gdb_132384=T pbc="F F F"
N       -0.01610000       1.39240000       0.15040000
C        0.00200000       0.02210000       0.05360000
C       -1.19140000      -0.71780000       0.03360000
C       -1.08230000      -2.09530000      -0.01430000
F       -2.20090000      -2.81240000      -0.03500000
N        0.03970000      -2.78850000      -0.04540000
C        1.14260000      -2.06510000      -0.02640000
F        2.28000000      -2.75160000      -0.05920000
C        1.21480000      -0.68510000       0.02060000
H        0.82150000       1.88680000      -0.11120000
H       -0.86960000       1.86380000      -0.10210000
H       -2.16440000      -0.24390000       0.05870000
H        2.17470000      -0.18500000       0.03520000
