21
Properties=species:S:1:pos:R:3 gdb_86455=T pbc="F F F"
C        0.01140000       1.50880000       0.09080000
C       -0.01770000      -0.00090000      -0.07800000
C        0.79920000      -0.49690000      -1.26230000
N        0.79410000      -1.94970000      -1.27220000
C        1.39310000      -2.50710000      -2.47250000
C        1.44330000      -2.45120000      -0.06920000
C        0.86550000      -1.86340000       1.19970000
N        0.86670000      -2.53530000       2.27200000
O        0.46330000      -0.56250000       1.16300000
H        1.03840000       1.86450000       0.21680000
H       -0.42390000       1.99810000      -0.78570000
H       -0.56410000       1.80200000       0.97220000
H       -1.05130000      -0.34770000      -0.21180000
H        0.33920000      -0.12840000      -2.18550000
H        1.82620000      -0.07960000      -1.21130000
H        2.46080000      -2.23870000      -2.58870000
H        1.32170000      -3.59880000      -2.44660000
H        0.85390000      -2.15010000      -3.35520000
H        1.34390000      -3.53630000      -0.00860000
H        2.53000000      -2.22050000      -0.07140000
H        0.49570000      -1.96680000       3.03680000
