21
Properties=species:S:1:pos:R:3 gdb_58988=T pbc="F F F"
C       -0.10330000       1.51520000       0.00900000
C       -0.01010000      -0.01740000      -0.01220000
O        0.73860000      -0.46970000      -1.14150000
C        0.67860000      -0.55750000       1.20600000
C        0.13570000      -1.12800000       2.27630000
C        1.19650000      -1.48820000       3.28180000
C        1.24400000      -2.97040000       3.65600000
O        2.42530000      -1.10420000       2.65360000
C        2.17470000      -0.48800000       1.39470000
H        0.89330000       1.96370000       0.05230000
H       -0.60490000       1.87920000      -0.89570000
H       -0.67970000       1.85700000       0.87360000
H       -1.03170000      -0.42790000      -0.04510000
H        0.37390000      -0.04680000      -1.92540000
H       -0.91770000      -1.32500000       2.43680000
H        1.07420000      -0.89940000       4.20820000
H        1.33630000      -3.58890000       2.75850000
H        2.10310000      -3.16530000       4.30400000
H        0.33510000      -3.26250000       4.19310000
H        2.71300000      -1.01850000       0.59820000
H        2.54790000       0.54940000       1.40200000
