20
Properties=species:S:1:pos:R:3 gdb_109732=T pbc="F F F"
C        0.04000000       1.42890000       0.39960000
C       -0.12800000      -0.02000000       0.00010000
C        0.49990000      -0.62620000      -1.23880000
C        1.41670000       0.11740000      -2.19340000
O        2.38560000      -0.74520000      -2.74050000
N        0.96090000      -0.97650000       0.08850000
C        2.23160000      -0.89030000       0.60580000
C        2.30450000      -0.57590000       2.08660000
O        3.22910000      -1.12940000      -0.05940000
H        1.01480000       1.83100000       0.11600000
H       -0.73310000       2.03730000      -0.08090000
H       -0.07550000       1.54680000       1.48200000
H       -1.09020000      -0.44040000       0.29360000
H       -0.05790000      -1.42680000      -1.72380000
H        0.81990000       0.50300000      -3.02820000
H        1.87630000       0.98210000      -1.69260000
H        2.90720000      -1.05910000      -1.98160000
H        2.21100000       0.50480000       2.24050000
H        1.49750000      -1.06340000       2.63850000
H        3.27360000      -0.89560000       2.46980000
