18
Properties=species:S:1:pos:R:3 gdb_89760=T pbc="F F F"
O        0.52770000       0.80130000      -0.72570000
C        0.06630000      -0.26440000       0.06320000
C        0.02540000      -0.11760000       1.62250000
C       -1.37440000      -0.74460000       1.59750000
C       -1.96180000      -1.80090000       2.41940000
O       -2.42930000      -0.44140000       2.48830000
C       -1.44390000      -0.57170000       0.09900000
C       -2.49130000       0.12640000      -0.68130000
N       -2.27980000      -1.32860000      -0.81880000
H        0.03210000       1.58930000      -0.47600000
H        0.65310000      -1.13550000      -0.24420000
H        0.80390000      -0.62720000       2.19280000
H       -0.01110000       0.93420000       1.92420000
H       -2.65290000      -2.50510000       1.96020000
H       -1.43510000      -2.15550000       3.30440000
H       -3.41840000       0.40930000      -0.19190000
H       -2.16630000       0.77630000      -1.49040000
H       -1.76610000      -1.52580000      -1.67570000
