20
Properties=species:S:1:pos:R:3 gdb_118675=T pbc="F F F"
O        0.24700000       1.40820000      -0.41880000
C        0.14780000       0.03630000      -0.09380000
C       -1.29830000      -0.38300000       0.19840000
N       -2.18220000      -0.21810000      -0.95190000
C       -2.09980000      -1.18960000      -2.05670000
C       -3.42040000      -1.90310000      -2.40880000
O       -4.20530000      -1.21470000      -3.34390000
C       -2.98150000       0.87240000      -1.04310000
O       -3.73150000       1.13070000      -1.97270000
H       -0.13990000       1.53900000      -1.29050000
H        0.57870000      -0.60090000      -0.88120000
H        0.74690000      -0.11410000       0.81050000
H       -1.32860000      -1.42720000       0.53170000
H       -1.68130000       0.23550000       1.01520000
H       -1.73560000      -0.69470000      -2.96520000
H       -1.35490000      -1.93130000      -1.75670000
H       -3.16690000      -2.86870000      -2.86290000
H       -3.96220000      -2.11840000      -1.47100000
H       -4.26200000      -0.29630000      -3.03000000
H       -2.89290000       1.53730000      -0.16680000
