21
Properties=species:S:1:pos:R:3 gdb_78029=T pbc="F F F"
C       -0.26370000       1.49980000      -0.15020000
C        0.05540000       0.02410000      -0.01800000
C        1.38950000      -0.65860000      -0.30850000
C        2.67290000       0.14290000      -0.33750000
O        2.69260000       1.00340000      -1.47320000
C        2.73460000       0.90510000       1.01680000
C        1.75950000       0.18320000       1.97490000
C        0.82900000      -0.64520000       1.09010000
O        0.33810000      -1.83650000       1.63850000
H       -0.28130000       1.79900000      -1.20250000
H       -1.25110000       1.71100000       0.27640000
H        0.45380000       2.14580000       0.35720000
H       -0.76230000      -0.61170000      -0.35250000
H        1.34620000      -1.56510000      -0.90110000
H        3.51340000      -0.56590000      -0.40100000
H        3.55130000       1.43770000      -1.50090000
H        3.75160000       0.93500000       1.41960000
H        2.43440000       1.94070000       0.83840000
H        2.29290000      -0.52230000       2.62010000
H        1.22700000       0.88120000       2.63190000
H       -0.42960000      -1.61980000       2.17830000
