11
Properties=species:S:1:pos:R:3 gdb_132036=T pbc="F F F"
F        0.06200000       0.05430000      -0.03190000
C       -0.06150000       1.35530000      -0.04670000
C       -1.21470000       2.02740000       0.06930000
F       -2.35910000       1.37920000       0.21340000
C       -1.20770000       3.48810000       0.03620000
N       -2.28240000       4.16030000       0.14320000
N        0.07780000       4.06840000      -0.12250000
C        1.10060000       3.33170000      -0.22220000
O        1.13620000       1.96570000      -0.19600000
H       -2.05870000       5.15590000       0.09580000
H        2.10340000       3.72600000      -0.34470000
