21
Properties=species:S:1:pos:R:3 gdb_71630=T pbc="F F F"
C        0.04930000       1.46580000      -0.08950000
C       -0.00280000      -0.02760000       0.00290000
O        0.69610000      -0.82220000      -1.03950000
C        0.09710000      -1.81600000      -0.12990000
C        0.60010000      -0.97820000       1.08110000
C       -0.09570000      -1.09620000       2.43640000
C       -1.50220000      -1.69260000       2.27150000
C       -2.20240000      -1.10970000       1.03410000
C       -1.22170000      -0.98980000      -0.13150000
H        1.08450000       1.81830000      -0.04610000
H       -0.39540000       1.80920000      -1.02880000
H       -0.50410000       1.91940000       0.73950000
H        0.26180000      -2.86780000      -0.36730000
H        1.68950000      -0.91190000       1.13610000
H        0.49960000      -1.71700000       3.11520000
H       -0.14750000      -0.10170000       2.90070000
H       -1.40350000      -2.77670000       2.13370000
H       -2.10400000      -1.54700000       3.17410000
H       -3.05280000      -1.73970000       0.75060000
H       -2.61950000      -0.11750000       1.25530000
H       -1.69340000      -0.93350000      -1.11570000
