19
Properties=species:S:1:pos:R:3 gdb_81249=T pbc="F F F"
O       -0.16340000       1.44330000      -0.08270000
C        0.00050000       0.05050000       0.03110000
C       -0.01560000      -0.61850000       1.43070000
C       -1.53090000      -0.19450000       1.52680000
C       -1.32750000      -0.75740000       0.08390000
C       -1.97810000      -1.34990000      -1.13420000
O       -0.99250000      -2.30950000      -1.57430000
C       -0.05930000      -2.67210000      -0.52070000
C       -0.53530000      -1.91860000       0.71880000
H        0.70310000       1.85490000      -0.01340000
H        0.76020000      -0.31010000      -0.66800000
H        0.73300000      -0.54470000       2.22190000
H       -2.15590000      -0.79300000       2.19380000
H       -1.72790000       0.87170000       1.61690000
H       -2.92900000      -1.84840000      -0.89550000
H       -2.14200000      -0.64830000      -1.95770000
H       -0.10810000      -3.75680000      -0.37340000
H        0.95340000      -2.42590000      -0.85890000
H       -1.13250000      -2.55430000       1.37750000
