23
Properties=species:S:1:pos:R:3 gdb_81540=T pbc="F F F"
C       -0.23370000       1.56650000       0.20750000
C        0.03990000       0.07980000       0.03090000
C        1.26960000      -0.44720000      -0.78180000
C        2.17710000      -0.06220000       0.42380000
C        0.91530000      -0.72960000       1.04520000
C        1.04990000      -1.81110000      -0.07040000
C       -0.06740000      -2.83850000      -0.38950000
C        0.90090000      -3.97320000       0.04480000
C        2.08240000      -2.96520000       0.00590000
H        0.65410000       2.14860000       0.46660000
H       -0.64760000       1.98970000      -0.71490000
H       -0.97520000       1.72660000       0.99860000
H       -0.89510000      -0.42720000      -0.22970000
H        1.47660000      -0.29100000      -1.84360000
H        3.11670000      -0.61020000       0.52070000
H        2.33380000       0.99910000       0.61870000
H        0.71050000      -0.90160000       2.10500000
H       -1.00590000      -2.75320000       0.16480000
H       -0.30450000      -2.87730000      -1.45790000
H        0.69350000      -4.32800000       1.05770000
H        0.97100000      -4.84080000      -0.61500000
H        2.67630000      -3.05320000      -0.90990000
H        2.76670000      -2.97450000       0.85850000
