18
Properties=species:S:1:pos:R:3 gdb_10713=T pbc="F F F"
C       -1.13630000       0.06520000       0.18960000
O        0.26920000       0.04170000       0.00420000
C        0.70210000      -0.69620000      -1.09920000
C        1.86750000      -1.63530000      -0.83770000
C        0.50800000      -2.19980000      -1.11340000
C        0.74900000       0.01720000      -2.42540000
C        0.55520000       1.52060000      -2.40820000
O        0.98180000      -0.59350000      -3.44760000
H       -1.66310000       0.50140000      -0.67040000
H       -1.53980000      -0.94070000       0.36470000
H       -1.32590000       0.68380000       1.06960000
H        2.62170000      -1.70650000      -1.61220000
H        2.22510000      -1.64680000       0.18510000
H       -0.03930000      -2.62560000      -0.28060000
H        0.32870000      -2.64700000      -2.08370000
H        1.16330000       1.98050000      -1.62420000
H        0.81320000       1.92440000      -3.38780000
H       -0.48740000       1.76980000      -2.18210000
