21
Properties=species:S:1:pos:R:3 gdb_107709=T pbc="F F F"
C       -0.02470000       1.34690000       0.04360000
O       -0.09070000      -0.06290000      -0.06520000
C       -1.37240000      -0.56350000      -0.05870000
C       -2.51850000      -0.33370000      -1.06520000
C       -3.07300000      -1.35860000      -0.04640000
C       -4.42700000      -2.00980000      -0.03660000
C       -1.67780000      -2.07910000       0.10100000
C       -1.71270000      -1.99000000       1.64060000
C       -2.35560000      -0.66830000       1.17260000
H        1.03280000       1.61950000       0.03590000
H       -0.52680000       1.84300000      -0.79870000
H       -0.47980000       1.70120000       0.97940000
H       -2.99640000       0.65220000      -1.07220000
H       -2.35690000      -0.69500000      -2.08690000
H       -4.59740000      -2.57890000      -0.95720000
H       -4.53140000      -2.70010000       0.80750000
H       -5.22340000      -1.26140000       0.04320000
H       -1.29990000      -2.87380000      -0.54500000
H       -2.36280000      -2.69880000       2.16290000
H       -0.74610000      -1.91230000       2.14530000
H       -2.76030000       0.15690000       1.76190000
