14
Properties=species:S:1:pos:R:3 gdb_34671=T pbc="F F F"
C       -0.10650000      -1.22740000      -0.12110000
C       -0.04240000      -0.03060000      -0.04130000
C        0.01470000       1.39560000       0.03760000
C        0.51150000       2.10190000       1.30040000
C        0.93660000       1.36110000       2.44660000
C        1.28710000       0.75470000       3.42240000
C        1.35480000       2.13450000       0.02370000
C        2.58820000       1.40620000      -0.05430000
N        3.59480000       0.84380000      -0.13620000
H       -0.14960000      -2.28660000      -0.18630000
H       -0.77880000       1.91940000      -0.48730000
H        0.00970000       3.04040000       1.51690000
H        1.60510000       0.21030000       4.27720000
H        1.36670000       3.07920000      -0.50940000
