14
Properties=species:S:1:pos:R:3 gdb_51156=T pbc="F F F"
O       -0.07930000       0.45390000       1.21440000
C       -0.08340000       1.26060000       0.31690000
N        1.01460000       1.65000000      -0.41490000
C        2.28970000       1.06960000      -0.30900000
C        2.92790000       0.67760000       1.02830000
C        3.65930000       1.58750000       0.12020000
O        4.30670000       0.80400000      -0.91720000
C        3.07170000       0.39760000      -1.41890000
O        2.85350000      -0.19190000      -2.42390000
H       -0.98890000       1.80790000      -0.00980000
H        0.85120000       2.28780000      -1.18010000
H        2.42920000       1.12850000       1.87880000
H        3.28050000      -0.33670000       1.18050000
H        4.02240000       2.59010000       0.29160000
