12
Properties=species:S:1:pos:R:3 gdb_23749=T pbc="F F F"
N       -0.03090000       1.38370000       0.15620000
C       -0.02540000       0.01720000       0.05760000
N       -1.17310000      -0.64950000       0.03980000
C       -1.10080000      -1.98950000       0.00080000
C        0.10300000      -2.66730000      -0.03060000
N        1.27290000      -1.99440000      -0.02820000
C        1.19280000      -0.70370000       0.01590000
F        2.32670000       0.00860000       0.01040000
H        0.80360000       1.86850000      -0.13000000
H       -0.90780000       1.83040000      -0.06260000
H       -2.04520000      -2.52540000      -0.01010000
H        0.15510000      -3.74980000      -0.06370000
