20
Properties=species:S:1:pos:R:3 gdb_60650=T pbc="F F F"
C       -0.21740000       1.47620000      -0.06640000
N       -0.05690000       0.02630000      -0.04560000
C        0.02400000      -0.65300000       1.23200000
C        1.00720000      -0.07100000       2.27790000
O       -0.08140000       0.37310000       3.11630000
C       -1.05350000      -0.29930000       2.28700000
C        0.02130000      -0.72680000      -1.19880000
C       -0.06940000       0.03960000      -2.50900000
O        0.15560000      -1.93880000      -1.18030000
H        0.61780000       1.97570000      -0.56950000
H       -1.14570000       1.78060000      -0.56210000
H       -0.25380000       1.84420000       0.96010000
H        0.14020000      -1.71050000       1.01040000
H        1.63210000      -0.82090000       2.77880000
H        1.64190000       0.75840000       1.94510000
H       -1.85730000       0.37060000       1.96060000
H       -1.49470000      -1.16740000       2.79270000
H        0.73570000       0.77530000      -2.60390000
H        0.00740000      -0.68300000      -3.32020000
H       -1.01710000       0.58050000      -2.59640000
