11
Properties=species:S:1:pos:R:3 gdb_24901=T pbc="F F F"
O       -0.09550000      -0.00840000       0.00400000
C        0.03320000       1.17150000       0.00880000
O       -1.19110000       1.94650000       0.02970000
C       -1.12520000       3.27640000       0.03610000
N       -0.02450000       3.96330000       0.02500000
C        1.11080000       3.19510000       0.00550000
N        1.19980000       1.90070000      -0.00300000
C       -2.39660000       3.91620000       0.05710000
C       -3.47340000       4.44930000       0.07490000
H        2.04300000       3.75650000      -0.00450000
H       -4.42420000       4.92560000       0.09060000
