19
Properties=species:S:1:pos:R:3 gdb_73415=T pbc="F F F"
C        0.00210000       1.45650000       0.00470000
C       -0.01280000      -0.05760000      -0.03100000
C        0.37130000      -0.70710000      -1.36800000
O       -0.20750000      -2.02200000      -1.34620000
C       -0.83260000      -2.17590000      -0.08740000
C        0.09140000      -2.19190000       1.13720000
C       -0.68770000      -1.08810000       1.82090000
C        0.63720000      -0.76040000       1.18110000
C       -1.32110000      -0.79340000       0.41830000
H        1.00950000       1.84820000      -0.18030000
H       -0.66390000       1.87750000      -0.75680000
H       -0.32090000       1.82670000       0.98320000
H       -0.03240000      -0.15750000      -2.23010000
H        1.46080000      -0.77880000      -1.48840000
H       -1.55890000      -2.98730000      -0.14280000
H        0.62490000      -3.02270000       1.57990000
H       -1.04790000      -0.99500000       2.83330000
H        1.58200000      -0.52670000       1.65650000
H       -2.31030000      -0.40000000       0.19430000
