15
Properties=species:S:1:pos:R:3 gdb_11163=T pbc="F F F"
N       -0.03450000       1.28450000      -0.08410000
C       -0.04040000       0.02440000      -0.05360000
C       -1.26140000      -0.86760000      -0.09790000
C       -0.68360000      -2.22190000      -0.52400000
C        0.74330000      -2.15470000       0.06950000
O        1.09030000      -0.75300000       0.01520000
C        0.82100000      -2.65240000       1.44190000
C        0.87180000      -3.07290000       2.56620000
H        0.92090000       1.64120000      -0.02370000
H       -1.69640000      -0.92280000       0.90590000
H       -2.01800000      -0.46360000      -0.77010000
H       -1.24160000      -3.08310000      -0.15650000
H       -0.61350000      -2.28850000      -1.61340000
H        1.47390000      -2.67970000      -0.55270000
H        0.92590000      -3.44070000       3.56140000
