18
Properties=species:S:1:pos:R:3 gdb_17196=T pbc="F F F"
O        0.22980000       1.38200000      -0.18880000
C        0.05310000       0.00430000      -0.02670000
C        0.00490000      -0.66210000       1.39140000
C       -1.44450000      -0.09630000       1.53790000
C       -1.37210000      -0.64050000       0.07480000
C       -0.64560000      -1.85770000       0.67360000
C       -0.08560000      -3.09690000       0.06760000
C       -1.14200000      -3.16840000       1.17120000
H       -0.34730000       1.85090000       0.42240000
H        0.72780000      -0.47300000      -0.74010000
H        0.79120000      -0.68870000       2.14770000
H       -2.10590000      -0.63320000       2.22090000
H       -1.55950000       0.98390000       1.67600000
H       -2.16310000      -0.64250000      -0.67710000
H       -0.38850000      -3.37320000      -0.93780000
H        0.92760000      -3.39390000       0.32080000
H       -0.82410000      -3.51270000       2.15060000
H       -2.14020000      -3.49190000       0.89220000
