19
Properties=species:S:1:pos:R:3 gdb_120945=T pbc="F F F"
O       -0.01100000       1.42370000       0.01320000
C       -0.01320000       0.01690000       0.20810000
C       -1.38710000      -0.50420000      -0.19880000
C       -1.50020000      -2.00900000      -0.06700000
O       -1.31700000      -2.50600000       1.29930000
C       -2.51250000      -3.28250000       1.20030000
C       -3.71410000      -2.38610000       1.04990000
C       -2.85550000      -2.72170000      -0.15220000
O       -3.32390000      -3.35820000      -1.28270000
H        0.82710000       1.76860000       0.33430000
H        0.76540000      -0.47140000      -0.40130000
H        0.17690000      -0.24700000       1.25840000
H       -2.14710000      -0.00790000       0.41340000
H       -1.57630000      -0.22780000      -1.24410000
H       -0.77960000      -2.51660000      -0.72310000
H       -2.51660000      -4.28250000       1.61610000
H       -4.66410000      -2.91310000       1.04950000
H       -3.72370000      -1.40050000       1.50660000
H       -3.98800000      -2.79550000      -1.69580000
