19
Properties=species:S:1:pos:R:3 gdb_40771=T pbc="F F F"
C        0.17680000       1.54840000       0.15750000
N        1.15820000       0.52530000      -0.24200000
C       -0.22940000       0.12500000       0.06550000
C       -0.37060000      -0.73210000       1.29050000
O       -1.74480000      -0.86910000       1.72750000
C       -1.67910000      -2.31640000       1.70510000
C       -0.26790000      -2.25250000       1.13700000
C        0.40640000      -3.03750000       0.08430000
N        0.83250000      -3.12620000       1.49850000
H        0.35470000       1.99490000       1.13200000
H       -0.19770000       2.23590000      -0.59570000
H        1.29550000       0.55220000      -1.24850000
H       -0.87820000      -0.15720000      -0.76110000
H        0.27070000      -0.33290000       2.09060000
H       -1.74470000      -2.75150000       2.71000000
H       -2.45560000      -2.75150000       1.06480000
H       -0.05890000      -3.93800000      -0.30820000
H        1.04220000      -2.50550000      -0.61840000
H        1.67910000      -2.57920000       1.64160000
