18
Properties=species:S:1:pos:R:3 gdb_31756=T pbc="F F F"
O        0.75590000       0.24130000      -0.61050000
C       -0.07200000       0.21100000       0.55280000
C       -1.47440000      -0.19870000       0.24500000
C       -2.69490000       0.30190000       0.64430000
C       -3.71510000      -0.50270000       0.05590000
C       -5.20050000      -0.35470000       0.21370000
O       -5.92740000      -0.81210000      -0.92040000
C       -3.07660000      -1.46500000      -0.69920000
N       -1.72550000      -1.27650000      -0.56980000
H        0.35490000       0.86380000      -1.22730000
H        0.42010000      -0.50840000       1.21910000
H       -0.08610000       1.17740000       1.07630000
H       -2.84250000       1.14970000       1.29780000
H       -5.57380000      -0.95910000       1.04970000
H       -5.44400000       0.69330000       0.45300000
H       -5.55340000      -0.36620000      -1.68810000
H       -3.48230000      -2.25190000      -1.31390000
H       -1.00600000      -1.77670000      -1.06390000
