20
Properties=species:S:1:pos:R:3 gdb_30694=T pbc="F F F"
C       -0.35970000       1.26110000      -0.02280000
O       -0.10490000      -0.12120000       0.01640000
C        0.74470000      -0.54200000       1.07980000
C       -0.01050000      -0.59340000       2.41590000
C        1.30680000      -1.88220000       0.69620000
C        1.04910000      -2.55830000      -0.47440000
N        1.75190000      -3.73680000      -0.44550000
C        2.45930000      -3.82840000       0.72530000
C        2.20400000      -2.69220000       1.45600000
H        0.57250000       1.84660000      -0.07030000
H       -0.94130000       1.45520000      -0.92810000
H       -0.94090000       1.61360000       0.84220000
H        1.57100000       0.18510000       1.17640000
H       -0.85490000      -1.28390000       2.33720000
H        0.65000000      -0.94490000       3.21380000
H       -0.38520000       0.39360000       2.70390000
H        0.42700000      -2.28740000      -1.30960000
H        1.74310000      -4.43000000      -1.17220000
H        3.07960000      -4.68420000       0.93740000
H        2.61890000      -2.46280000       2.42610000
