23
Properties=species:S:1:pos:R:3 gdb_73370=T pbc="F F F"
C        0.00350000       1.46890000       0.01590000
C        0.01270000      -0.05080000       0.01960000
C        0.70220000      -0.70110000      -1.20000000
C        0.75320000      -2.20920000      -0.82360000
C        0.46520000      -2.19080000       0.68390000
C       -1.00170000      -1.85280000       1.14270000
C       -0.35970000      -1.02310000       2.28890000
C        0.72440000      -0.75300000       1.22360000
C       -1.39260000      -0.73240000       0.16100000
H        1.02010000       1.87220000      -0.05860000
H       -0.57000000       1.86060000      -0.83230000
H       -0.44920000       1.86820000       0.93040000
H        0.16240000      -0.50450000      -2.13230000
H        1.71530000      -0.29770000      -1.32000000
H        0.01320000      -2.80080000      -1.37340000
H        1.73160000      -2.64860000      -1.03980000
H        0.91180000      -2.99800000       1.26700000
H       -1.73740000      -2.63480000       1.33880000
H       -0.92990000      -0.18060000       2.69380000
H        0.01400000      -1.64380000       3.10750000
H        1.72330000      -0.39050000       1.47480000
H       -2.14480000      -0.06360000       0.59210000
H       -1.77820000      -1.09340000      -0.79780000
