17
Properties=species:S:1:pos:R:3 gdb_122061=T pbc="F F F"
O       -0.88140000       1.41340000       0.61630000
C       -0.17460000       0.30530000       0.11930000
C       -1.08270000      -0.86750000      -0.22520000
O       -1.88140000      -0.54250000      -1.36960000
C       -3.26470000      -0.57090000      -1.24770000
C       -3.89730000       0.82220000      -1.13230000
O       -3.27060000       1.83130000      -0.94470000
C       -3.87240000      -1.28700000      -2.46220000
O       -5.05540000      -1.39240000      -2.64180000
H       -1.51270000       1.69340000      -0.06350000
H        0.42330000       0.55640000      -0.77200000
H        0.52310000      -0.01400000       0.90300000
H       -0.48550000      -1.75600000      -0.46970000
H       -1.72540000      -1.10030000       0.63350000
H       -3.61160000      -1.13320000      -0.36240000
H       -4.99810000       0.82240000      -1.25350000
H       -3.10430000      -1.68590000      -3.15750000
