18
Properties=species:S:1:pos:R:3 gdb_80978=T pbc="F F F"
C        0.01640000       1.50140000       0.09770000
C       -0.02570000      -0.00370000      -0.02040000
C        0.30030000      -0.72360000      -1.36590000
C       -0.59720000      -1.86960000      -0.84770000
O        0.15160000      -2.66960000       0.09380000
C        0.79900000      -1.90620000       0.99900000
N        0.78160000      -0.63610000       1.04800000
C       -1.38840000      -0.77160000      -0.07230000
O       -2.07770000      -1.07390000       1.09840000
H        1.04830000       1.86210000       0.04100000
H       -0.56480000       1.97330000      -0.70070000
H       -0.39400000       1.81850000       1.06160000
H       -0.14780000      -0.22050000      -2.22530000
H        1.34680000      -0.96020000      -1.56390000
H       -1.09300000      -2.56810000      -1.51910000
H        1.35620000      -2.51010000       1.71140000
H       -2.08570000      -0.27840000      -0.75490000
H       -1.42700000      -1.19110000       1.80150000
