17
Properties=species:S:1:pos:R:3 gdb_11382=T pbc="F F F"
C        0.06400000       1.57670000       0.01250000
C        0.03400000       0.04750000       0.07500000
C       -1.38860000      -0.53800000       0.00540000
N       -2.06540000      -0.28640000      -1.25210000
C       -2.52700000      -1.43290000      -1.87050000
O       -3.18270000      -1.48790000      -2.88890000
C       -2.03930000      -2.55080000      -1.00550000
C       -1.41260000      -2.04790000       0.05790000
H        1.08790000       1.95150000       0.09850000
H       -0.34010000       1.94490000      -0.93620000
H       -0.52250000       2.02070000       0.82490000
H        0.62250000      -0.37760000      -0.74570000
H        0.49470000      -0.29250000       1.01090000
H       -1.97010000      -0.12950000       0.84920000
H       -2.38370000       0.62100000      -1.54690000
H       -2.21290000      -3.58740000      -1.25690000
H       -0.94590000      -2.59380000       0.86840000
