21
Properties=species:S:1:pos:R:3 gdb_41191=T pbc="F F F"
C       -0.05040000       1.60290000      -0.15850000
C        1.53000000       1.46710000       0.03110000
C        1.19030000       0.20600000       0.90510000
C        1.23870000      -1.35900000       0.97680000
C       -0.35780000      -1.23860000       0.91400000
C       -0.92550000      -0.91640000       2.28960000
O       -0.48890000       0.35430000       2.74110000
C        0.83880000       0.67010000       2.34750000
C       -0.04790000       0.05180000       0.06360000
H       -0.50700000       2.17370000       0.65090000
H       -0.41120000       1.97740000      -1.11940000
H        2.01350000       1.21740000      -0.91710000
H        2.06290000       2.29750000       0.50420000
H        1.64020000      -1.84290000       0.08340000
H        1.66640000      -1.82000000       1.87420000
H       -0.90540000      -2.06000000       0.44400000
H       -2.01960000      -0.86590000       2.25830000
H       -0.64760000      -1.70720000       3.00790000
H        1.56710000       0.21900000       3.04310000
H        0.92020000       1.75510000       2.45320000
H        0.28030000      -0.34800000      -0.90470000
