17
Properties=species:S:1:pos:R:3 gdb_31082=T pbc="F F F"
C       -0.06430000       1.40450000       0.07520000
O       -0.01270000      -0.01500000       0.04090000
C       -1.20790000      -0.64730000       0.00670000
C       -1.36940000      -2.00800000      -0.01090000
N       -0.51460000      -3.12530000       0.01090000
N       -2.76600000      -2.17130000      -0.03640000
C       -3.32240000      -0.93950000      -0.03170000
N       -4.69870000      -0.73200000      -0.13700000
N       -2.41010000       0.01440000       0.00380000
H        0.97410000       1.74100000       0.09920000
H       -0.56690000       1.80820000      -0.81030000
H       -0.59390000       1.76440000       0.96400000
H        0.07000000      -3.17470000      -0.81760000
H        0.10660000      -3.11120000       0.81330000
H       -3.23250000      -3.05690000      -0.13560000
H       -5.23530000      -1.23210000       0.56290000
H       -4.89190000       0.25950000      -0.06420000
