21
Properties=species:S:1:pos:R:3 gdb_89183=T pbc="F F F"
C        0.03230000       1.47560000       0.00870000
C        0.02030000      -0.03550000       0.13130000
O        0.98290000      -0.64800000      -0.78420000
C        1.77790000      -1.11200000       0.31640000
C        3.26290000      -1.03900000       0.18560000
C        0.75370000      -0.61670000       1.33250000
C        1.00290000      -2.11120000       1.13110000
C        0.00110000      -3.07790000       0.54720000
O        1.81000000      -2.65530000       2.14920000
H        1.03090000       1.87490000       0.20850000
H       -0.26550000       1.77350000      -1.00120000
H       -0.67140000       1.92130000       0.72090000
H       -0.98940000      -0.42550000      -0.05290000
H        3.59800000      -0.00810000       0.03560000
H        3.73430000      -1.44630000       1.08190000
H        3.59150000      -1.63000000      -0.67710000
H        0.89410000      -0.13970000       2.29510000
H       -0.44140000      -2.68310000      -0.36910000
H        0.50410000      -4.01950000       0.30590000
H       -0.80510000      -3.29600000       1.25840000
H        1.26070000      -2.76920000       2.93280000
