19
Properties=species:S:1:pos:R:3 gdb_65741=T pbc="F F F"
O        0.09190000       1.34660000      -0.00170000
C        0.03820000      -0.08210000       0.03190000
C        0.85210000      -0.54820000      -1.18200000
C        2.30100000      -0.11150000      -1.11450000
O        3.23750000      -0.86990000      -1.15560000
C        0.56980000      -0.59980000       1.40050000
C       -0.68560000      -0.70520000       2.23330000
C       -1.78320000      -0.67780000       1.47570000
C       -1.44520000      -0.54930000       0.00920000
H       -0.38460000       1.67120000       0.77110000
H        0.81990000      -1.63620000      -1.27700000
H        0.40500000      -0.09850000      -2.07890000
H        2.44890000       0.98440000      -1.01870000
H        1.05890000      -1.57830000       1.30070000
H        1.32100000       0.08760000       1.80470000
H       -0.66870000      -0.82360000       3.31090000
H       -2.80030000      -0.76990000       1.83950000
H       -2.05900000       0.17710000      -0.53400000
H       -1.55940000      -1.51420000      -0.50380000
