14
Properties=species:S:1:pos:R:3 gdb_50025=T pbc="F F F"
O       -0.26320000       0.51420000       0.85510000
C        0.28340000       0.83580000      -0.16690000
C        1.46730000       1.74510000      -0.22320000
N        2.26990000       1.63750000      -1.45570000
C        1.50460000       2.83620000      -1.24730000
C        0.46160000       3.48410000      -2.15230000
O        1.03070000       4.79520000      -1.81090000
C        2.00950000       4.24350000      -1.01950000
O        2.89580000       4.78000000      -0.43900000
H       -0.05220000       0.47850000      -1.16540000
H        1.95470000       1.95250000       0.72600000
H        3.25630000       1.79930000      -1.26110000
H        0.57140000       3.27540000      -3.21780000
H       -0.58180000       3.42380000      -1.83910000
