17
Properties=species:S:1:pos:R:3 gdb_13910=T pbc="F F F"
C       -0.27310000       1.45250000       0.06630000
C        0.02600000      -0.02900000       0.06110000
C        1.37190000      -0.56990000      -0.30170000
O        2.44090000       0.24900000      -0.60650000
C        0.88380000      -0.71240000       1.15070000
C        1.58240000       0.09160000       2.18340000
N        1.50420000      -0.37970000       3.45690000
O        2.22580000       1.11120000       1.92640000
H        0.58480000       2.03810000       0.39690000
H       -0.54090000       1.77880000      -0.94410000
H       -1.11530000       1.68140000       0.72770000
H       -0.81290000      -0.65210000      -0.24040000
H        1.40570000      -1.49210000      -0.87570000
H        2.60050000       0.81020000       0.17730000
H        0.55160000      -1.69460000       1.47200000
H        0.92850000      -1.16410000       3.70510000
H        1.95980000       0.14380000       4.18640000
