19
Properties=species:S:1:pos:R:3 gdb_68260=T pbc="F F F"
C       -0.01430000       1.47490000       0.06080000
C        0.05200000      -0.02660000       0.01920000
C        0.72430000      -0.94280000      -1.05120000
C        0.08840000      -1.92470000      -0.02870000
C        0.65010000      -1.00190000       1.08990000
C       -1.17860000      -0.99620000      -0.04420000
O       -1.98540000      -0.95090000       1.11750000
C       -2.01970000      -0.99640000      -1.23540000
C       -2.77210000      -1.02040000      -2.17420000
H        0.98830000       1.91040000       0.12690000
H       -0.49730000       1.86880000      -0.83980000
H       -0.58980000       1.81130000       0.92930000
H        0.30880000      -0.92310000      -2.06030000
H        1.81620000      -0.92140000      -1.06350000
H        0.09190000      -3.01450000      -0.06400000
H        1.73890000      -0.98240000       1.18210000
H        0.15700000      -1.03650000       2.05940000
H       -2.74780000      -1.51910000       0.96900000
H       -3.42570000      -1.03280000      -3.01140000
