15
Properties=species:S:1:pos:R:3 gdb_123939=T pbc="F F F"
C       -0.01180000       1.39070000       0.01500000
C        1.42390000       1.93050000       0.02450000
O        2.13000000       1.55300000       1.20460000
C        1.92410000       0.22100000       1.45100000
C        0.90190000      -0.49970000       0.87660000
N        1.00230000      -1.76560000       1.33830000
N        2.05080000      -1.91300000       2.18950000
C        2.61090000      -0.70440000       2.25920000
O       -0.03740000      -0.04970000       0.01720000
H       -0.55470000       1.75860000       0.89440000
H       -0.53350000       1.70450000      -0.89130000
H        1.95640000       1.55930000      -0.86260000
H        1.40810000       3.02280000       0.00010000
H        0.42630000      -2.55680000       1.10960000
H        3.47690000      -0.54330000       2.88270000
