25
Properties=species:S:1:pos:R:3 gdb_112562=T pbc="F F F"
C       -0.22760000       1.39600000       0.20880000
O        0.27060000       0.11110000      -0.08240000
C        0.79320000      -0.55670000       1.04840000
C       -0.28390000      -1.23330000       1.94370000
C       -0.02860000      -2.58820000       1.20590000
C        0.13710000      -3.81510000       2.09820000
C       -1.07490000      -2.84600000       0.11780000
C        1.31080000      -1.96600000       0.66140000
C        1.78840000      -2.22220000      -0.76040000
H        0.55620000       2.04570000       0.62960000
H       -0.58000000       1.82950000      -0.73050000
H       -1.06610000       1.36760000       0.92070000
H        1.50920000       0.10210000       1.56280000
H        0.01480000      -1.26400000       2.99590000
H       -1.29470000      -0.82090000       1.87730000
H       -0.81200000      -4.09280000       2.57230000
H        0.48060000      -4.68160000       1.52010000
H        0.86760000      -3.63450000       2.89460000
H       -1.21550000      -1.96620000      -0.51460000
H       -0.78590000      -3.68630000      -0.52360000
H       -2.04120000      -3.09410000       0.57290000
H        2.11210000      -2.22760000       1.36320000
H        1.05240000      -1.89970000      -1.49940000
H        2.71670000      -1.67630000      -0.96080000
H        1.99160000      -3.28750000      -0.91640000
