18
Properties=species:S:1:pos:R:3 gdb_22387=T pbc="F F F"
C       -0.08760000       1.52640000       0.02930000
C        0.03000000       0.03310000       0.00610000
C        0.76380000      -0.79700000      -1.08890000
C       -0.27640000      -1.82180000      -0.59290000
C        0.18530000      -2.17110000       0.84160000
C        0.42430000      -0.72910000       1.26090000
N        0.82470000      -0.19620000       2.33690000
O        1.09560000      -1.17040000       3.31790000
O       -1.19790000      -0.71230000      -0.34800000
H        0.87930000       1.97240000       0.27930000
H       -0.41500000       1.90350000      -0.94270000
H       -0.80760000       1.83700000       0.79160000
H        0.53080000      -0.42420000      -2.08730000
H        1.82990000      -1.01010000      -0.97250000
H       -0.68710000      -2.61220000      -1.21920000
H       -0.60530000      -2.64590000       1.42810000
H        1.08550000      -2.79000000       0.89950000
H        1.37100000      -0.63230000       4.06790000
