16
Properties=species:S:1:pos:R:3 gdb_85782=T pbc="F F F"
N        0.01090000       1.17740000       0.48480000
C        0.08420000      -0.05410000      -0.09620000
O        1.07620000      -0.50820000      -0.62600000
C       -1.23970000      -0.81850000      -0.06000000
C       -1.19240000      -2.37140000       0.02990000
C       -2.26770000      -2.35000000       1.15370000
O       -1.99570000      -3.14680000       2.27250000
C       -2.01420000      -0.83500000       1.26550000
O       -2.17940000      -0.02430000       2.13720000
H        0.87730000       1.68240000       0.59110000
H       -0.73400000       1.36530000       1.14210000
H       -1.87060000      -0.45040000      -0.87690000
H       -1.44740000      -2.92490000      -0.87220000
H       -0.22930000      -2.71300000       0.41190000
H       -3.27540000      -2.52930000       0.74200000
H       -2.53180000      -2.82490000       3.00620000
