14
Properties=species:S:1:pos:R:3 gdb_133181=T pbc="F F F"
C        0.12270000       1.48360000       0.05340000
C        0.00000000      -0.00900000       0.02360000
C       -0.07990000      -0.71500000      -1.11830000
O       -0.19190000      -2.06100000      -1.21440000
N       -0.23260000      -2.82980000      -0.06650000
C       -0.15940000      -2.19590000       1.04160000
F       -0.19950000      -2.95670000       2.12480000
C       -0.03640000      -0.75020000       1.27430000
N        0.03200000      -0.18970000       2.42620000
H        1.03630000       1.77990000       0.57880000
H        0.13750000       1.90570000      -0.95420000
H       -0.70930000       1.92270000       0.61320000
H       -0.06360000      -0.28050000      -2.11110000
H       -0.01110000      -0.89100000       3.16700000
