21
Properties=species:S:1:pos:R:3 gdb_64768=T pbc="F F F"
C       -0.05210000       1.69630000       0.01970000
C        0.05440000       0.17290000      -0.04330000
C       -1.35120000      -0.48770000      -0.07320000
C       -2.16790000      -0.20920000       1.10070000
C       -2.85350000       0.02620000       2.05940000
C        0.90760000      -0.32330000      -1.23850000
C        1.73210000      -1.47130000      -0.63970000
C        1.93360000      -0.97310000       0.79260000
O        0.73130000      -0.29640000       1.13600000
H        0.94510000       2.13780000       0.10250000
H       -0.53060000       2.09240000      -0.88280000
H       -0.64160000       2.00240000       0.88710000
H       -1.87920000      -0.14720000      -0.97360000
H       -1.22100000      -1.57170000      -0.17670000
H       -3.45170000       0.22870000       2.91270000
H        0.29280000      -0.62730000      -2.08960000
H        1.56880000       0.47980000      -1.58040000
H        1.16150000      -2.40600000      -0.64060000
H        2.67170000      -1.65010000      -1.16830000
H        2.09520000      -1.77380000       1.52100000
H        2.79360000      -0.28580000       0.84820000
