17
Properties=species:S:1:pos:R:3 gdb_109144=T pbc="F F F"
O        0.78430000      -0.10470000      -0.48050000
C       -0.19240000       0.46950000       0.38050000
C       -1.56100000      -0.17650000       0.24580000
N       -2.60380000       0.53490000       0.44660000
C       -3.87810000      -0.16440000       0.49860000
C       -3.98900000      -1.46080000      -0.29230000
O       -5.04280000      -1.91940000      -0.65990000
C       -2.67780000      -2.17250000      -0.62290000
N       -1.52620000      -1.52550000      -0.01790000
H        0.60990000       0.20740000      -1.37460000
H        0.17900000       0.30320000       1.39790000
H       -0.31020000       1.54820000       0.23800000
H       -4.10430000      -0.42790000       1.54600000
H       -4.69020000       0.49600000       0.17860000
H       -2.75970000      -3.21210000      -0.28700000
H       -2.61050000      -2.19810000      -1.72150000
H       -0.61600000      -1.85550000      -0.30970000
