21
Properties=species:S:1:pos:R:3 gdb_1095=T pbc="F F F"
C       -0.03180000       1.61130000       0.13030000
C        0.01870000       0.08730000      -0.01240000
C       -1.37510000      -0.54480000      -0.09500000
C       -1.40880000      -2.08820000      -0.03220000
C       -2.86440000      -2.57730000      -0.05240000
C       -0.61740000      -2.73370000      -1.17320000
O       -0.76780000      -2.54600000       1.16780000
H        0.97400000       2.04010000       0.18160000
H       -0.54760000       2.07530000      -0.71820000
H       -0.56600000       1.90760000       1.04030000
H        0.59810000      -0.17060000      -0.90660000
H        0.55230000      -0.35270000       0.83710000
H       -1.98660000      -0.16420000       0.73750000
H       -1.88280000      -0.21400000      -1.01100000
H       -3.36650000      -2.30230000      -0.98580000
H       -2.89940000      -3.66540000       0.05330000
H       -3.43540000      -2.13460000       0.77290000
H        0.44140000      -2.47290000      -1.10960000
H       -0.69810000      -3.82280000      -1.11550000
H       -1.00010000      -2.40790000      -2.14510000
H       -1.27610000      -2.21280000       1.91540000
