18
Properties=species:S:1:pos:R:3 gdb_39357=T pbc="F F F"
C       -0.00110000       1.52630000       0.29210000
C        1.30690000       0.84510000      -0.02530000
C        2.25980000       0.44710000       1.09910000
C        1.56040000      -0.16080000       2.34910000
N        0.64260000      -1.27720000       2.04510000
C       -0.01020000      -1.03450000       1.00040000
O       -0.84230000      -1.84640000       0.26280000
C       -0.81220000      -0.88910000      -0.85880000
C        0.02270000       0.05250000       0.00440000
H       -0.21870000       1.86720000       1.29850000
H       -0.41950000       2.15260000      -0.48970000
H        1.76160000       1.08010000      -0.98310000
H        2.96320000      -0.29670000       0.70480000
H        2.85470000       1.31090000       1.41810000
H        2.33260000      -0.53630000       3.02650000
H        1.02890000       0.62460000       2.90320000
H       -0.32300000      -1.33930000      -1.72680000
H       -1.81920000      -0.54970000      -1.11370000
