17
Properties=species:S:1:pos:R:3 gdb_78633=T pbc="F F F"
C        0.23610000       1.48080000      -0.14180000
N        0.08000000       0.03570000      -0.00270000
C       -1.18670000      -0.42120000       0.63480000
C       -0.50520000      -1.71090000       1.17910000
C        0.53390000      -0.54490000       1.29110000
C       -0.74780000      -0.10470000       2.11660000
N       -1.05990000      -1.49430000       2.53790000
C       -0.65210000      -2.13370000       3.67840000
O       -0.25450000      -3.27690000       3.72830000
H        1.28360000       1.70840000      -0.36270000
H       -0.36600000       1.82680000      -0.98770000
H       -0.06060000       2.05850000       0.75020000
H       -2.17380000      -0.31640000       0.18380000
H       -0.39690000      -2.68350000       0.70940000
H        1.57670000      -0.58710000       1.60980000
H       -0.93690000       0.75770000       2.75370000
H       -0.80870000      -1.50380000       4.57870000
