17
Properties=species:S:1:pos:R:3 gdb_36172=T pbc="F F F"
N       -0.00260000      -1.15380000       0.07740000
C        0.02590000       0.00060000       0.10510000
C        0.06560000       1.46260000       0.11710000
C        1.47030000       2.00520000      -0.04380000
C        2.51890000       1.67860000      -1.11150000
C        3.20780000       2.59860000      -0.10150000
C        1.94840000       3.48320000       0.14110000
C        2.09290000       3.23930000       1.63830000
N        2.52520000       1.87920000       1.09610000
H       -0.56630000       1.83510000      -0.69820000
H       -0.37620000       1.82360000       1.05300000
H        2.86680000       0.64320000      -1.13910000
H        2.34650000       2.08160000      -2.11260000
H        4.25180000       2.90370000      -0.02830000
H        1.62560000       4.36780000      -0.41870000
H        2.89360000       3.76440000       2.16790000
H        1.19130000       3.20500000       2.25860000
