19
Properties=species:S:1:pos:R:3 gdb_37087=T pbc="F F F"
C       -0.04880000       1.51080000       0.09550000
C        1.26500000       0.77380000      -0.05110000
C       -0.02920000       0.01770000       0.00300000
C       -0.43600000      -1.00070000       1.05460000
N       -1.90610000      -1.18180000       0.91790000
C       -0.98210000      -1.90700000       0.00440000
C       -0.58980000      -0.91680000      -1.07860000
C       -1.20870000      -0.60830000      -2.37950000
N        0.08490000      -1.33050000      -2.30110000
H       -0.28780000       1.96040000       1.05350000
H       -0.41470000       2.06940000      -0.76050000
H        1.78480000       0.84050000      -1.00280000
H        1.92760000       0.71690000       0.80660000
H        0.08110000      -1.23680000       1.97650000
H       -2.18770000      -1.85130000       1.63550000
H       -0.97110000      -2.98690000      -0.06750000
H       -2.04200000      -1.19930000      -2.74910000
H       -1.20780000       0.42830000      -2.70920000
H        0.85690000      -0.70090000      -2.51070000
