12
Properties=species:S:1:pos:R:3 gdb_129343=T pbc="F F F"
N       -0.17960000       1.31820000       0.01090000
C       -0.00270000       0.07730000       0.00270000
O       -1.14170000      -0.71180000       0.00680000
C       -1.04100000      -2.04990000      -0.00110000
C       -2.23000000      -2.79450000       0.00310000
N       -2.17080000      -4.10610000      -0.00420000
N       -0.96290000      -4.69950000      -0.01560000
N        0.13420000      -4.00100000      -0.01930000
N        0.12420000      -2.66180000      -0.01220000
H        0.71770000       1.80040000       0.00710000
H        0.92050000      -0.49890000      -0.00720000
H       -3.20620000      -2.31950000       0.01230000
