19
Properties=species:S:1:pos:R:3 gdb_38165=T pbc="F F F"
C       -0.04060000       1.47920000       0.10240000
C        1.29870000       0.72930000      -0.03220000
C        2.17790000       0.55700000       1.15400000
C        2.01240000      -0.44070000       2.02560000
C        0.95640000      -1.51810000       1.88570000
C       -0.28520000      -1.03660000       1.11500000
C       -0.81640000      -1.87310000      -0.07580000
O       -0.56010000      -0.79330000      -1.00990000
C        0.00410000      -0.00610000       0.03220000
H       -0.28240000       1.95390000       1.04860000
H       -0.38580000       2.00470000      -0.78220000
H        1.78280000       0.83110000      -0.99970000
H        2.97000000       1.28650000       1.30800000
H        2.68150000      -0.52410000       2.87810000
H        1.40310000      -2.37840000       1.36590000
H        0.67290000      -1.89120000       2.87560000
H       -1.07410000      -0.72660000       1.80500000
H       -0.22310000      -2.76430000      -0.31580000
H       -1.87840000      -2.13990000      -0.05120000
