19
Properties=species:S:1:pos:R:3 gdb_90947=T pbc="F F F"
C       -0.30210000       1.53970000       0.06380000
C        0.06740000       0.06390000      -0.02500000
O        0.83710000      -0.16490000      -1.22070000
C        2.14750000      -0.61670000      -1.01740000
C        2.43830000      -1.70430000       0.00080000
C        1.28760000      -1.89890000       0.97540000
C        0.85820000      -0.43320000       1.19300000
O        2.08850000       0.30130000       1.25590000
C        2.88770000      -0.26980000       0.24370000
H        0.58980000       2.14270000       0.24890000
H       -0.76360000       1.86590000      -0.87170000
H       -1.01510000       1.70860000       0.87850000
H       -0.84870000      -0.53830000      -0.11760000
H        2.68770000      -0.62900000      -1.95770000
H        3.12570000      -2.51280000      -0.21700000
H        0.46920000      -2.50330000       0.57380000
H        1.63670000      -2.35350000       1.90740000
H        0.30840000      -0.25080000       2.11850000
H        3.91380000       0.07600000       0.26930000
