17
Properties=species:S:1:pos:R:3 gdb_77374=T pbc="F F F"
C       -0.01640000       1.53350000       0.09040000
C        0.14720000       0.04810000       0.05730000
O       -1.12580000      -0.70010000       0.02500000
C       -0.40810000      -1.76880000       0.65660000
C        0.72490000      -0.92550000       1.14460000
C        0.96800000      -1.87520000      -0.02090000
O        1.75600000      -3.00220000       0.01190000
C        0.96910000      -0.71820000      -1.02480000
O        0.37940000      -0.87490000      -2.28310000
H        0.95880000       2.02170000       0.17750000
H       -0.48950000       1.87530000      -0.83620000
H       -0.64140000       1.83970000       0.93370000
H       -0.94790000      -2.59220000       1.10490000
H        1.20820000      -0.78940000       2.10090000
H        1.42230000      -3.62310000      -0.64580000
H        1.97100000      -0.29980000      -1.15290000
H       -0.56100000      -1.01440000      -2.09930000
