20
Properties=species:S:1:pos:R:3 gdb_121466=T pbc="F F F"
C        0.06350000       1.57240000       0.09720000
C       -0.03330000       0.04600000       0.04940000
C        0.48670000      -0.53430000      -1.26990000
N        0.45130000      -1.99110000      -1.23400000
C       -0.05920000      -2.63670000      -2.18060000
C       -0.15950000      -4.14490000      -2.28800000
O       -1.10300000      -4.34620000      -3.33140000
C       -1.00470000      -3.21490000      -4.15220000
O       -0.63640000      -2.12070000      -3.31600000
H        1.10130000       1.90850000      -0.00860000
H       -0.51610000       2.03490000      -0.70970000
H       -0.31690000       1.96440000       1.04520000
H        0.53440000      -0.39910000       0.87430000
H       -1.07510000      -0.26850000       0.18750000
H       -0.07830000      -0.11650000      -2.11390000
H        1.53450000      -0.22990000      -1.40200000
H        0.82060000      -4.58080000      -2.53600000
H       -0.53020000      -4.60350000      -1.37040000
H       -0.23270000      -3.33860000      -4.92980000
H       -1.97730000      -3.01130000      -4.60760000
