17
Properties=species:S:1:pos:R:3 gdb_94967=T pbc="F F F"
O       -0.00870000       1.36680000       0.27760000
C        0.00720000      -0.01950000      -0.02280000
C        0.54440000      -0.86930000       1.14500000
O       -0.53410000      -0.99130000       2.06570000
C       -1.71880000      -1.09020000       1.30590000
C       -1.45750000      -0.46170000      -0.10710000
C       -1.74200000      -1.82290000      -0.80430000
C       -1.94570000      -2.46050000       0.58550000
O       -2.16310000      -3.57160000       0.96520000
H        0.88770000       1.64210000       0.49440000
H        0.55920000      -0.22050000      -0.95270000
H        0.87150000      -1.85730000       0.78150000
H        1.38380000      -0.40230000       1.66870000
H       -2.55800000      -0.73750000       1.91020000
H       -2.09180000       0.36880000      -0.41040000
H       -2.64310000      -1.84350000      -1.42430000
H       -0.92170000      -2.25870000      -1.38450000
