16
Properties=species:S:1:pos:R:3 gdb_92948=T pbc="F F F"
O       -0.05750000       1.36860000      -0.02530000
C        0.01670000      -0.04010000       0.11460000
C        0.52420000      -0.35820000       1.53450000
C       -0.70250000      -0.81650000       2.27930000
C       -1.75760000      -0.99140000       1.48940000
C       -1.45520000      -0.65550000       0.04160000
O       -2.37390000       0.25310000      -0.53490000
C       -1.46650000      -1.86610000      -0.79590000
N       -1.42330000      -2.83420000      -1.42540000
H       -0.20660000       1.56270000      -0.95750000
H        0.65390000      -0.47060000      -0.66350000
H        1.29270000      -1.13990000       1.51550000
H        0.98520000       0.53230000       1.97380000
H       -0.69420000      -0.99580000       3.34870000
H       -2.74410000      -1.32870000       1.78150000
H       -2.18830000       1.09810000      -0.10110000
