22
Properties=species:S:1:pos:R:3 gdb_119630=T pbc="F F F"
O        0.07270000       1.45840000       0.20700000
C        0.02220000       0.04080000       0.26030000
C       -1.28420000      -0.52590000      -0.30600000
C       -1.34990000      -2.03440000      -0.24030000
C       -0.40880000      -2.86870000      -1.10780000
C       -0.99100000      -4.30150000      -1.08380000
C       -2.50750000      -4.11870000      -0.83360000
C       -2.61260000      -2.80930000      -0.06980000
N       -1.71250000      -2.59780000       1.07690000
H       -0.62790000       1.79510000       0.77470000
H        0.87630000      -0.30270000      -0.33310000
H        0.16510000      -0.33120000       1.28630000
H       -2.12330000      -0.11470000       0.26880000
H       -1.39990000      -0.18570000      -1.34270000
H       -0.41990000      -2.46210000      -2.12700000
H        0.63200000      -2.83870000      -0.76660000
H       -0.78440000      -4.84910000      -2.00650000
H       -0.53760000      -4.88530000      -0.27620000
H       -3.05110000      -4.02030000      -1.78130000
H       -2.94980000      -4.96600000      -0.29790000
H       -3.58170000      -2.32500000       0.01680000
H       -1.18110000      -3.43950000       1.28640000
