16
Properties=species:S:1:pos:R:3 gdb_110174=T pbc="F F F"
N        0.52490000       2.65910000      -0.66740000
H        0.53650000       1.91400000      -1.35840000
H        1.48310000       2.98670000      -0.58130000
H       -0.00930000       3.42260000      -1.07430000
C       -2.46820000       1.10310000       2.55560000
C       -1.59820000       1.87730000       1.92060000
C       -1.40650000       3.34210000       2.25650000
N       -0.06710000       3.63020000       2.73250000
C        1.04260000       3.54060000       2.26060000
O        2.17030000       3.51950000       1.95080000
C       -1.74050000       4.19330000       1.09530000
N       -2.01030000       4.85690000       0.18860000
H       -2.58230000       0.05500000       2.30110000
H       -3.10220000       1.48010000       3.35300000
H       -0.95850000       1.52240000       1.11810000
H       -2.09520000       3.61660000       3.06190000
