19
Properties=species:S:1:pos:R:3 gdb_65615=T pbc="F F F"
C        0.03420000       1.49610000      -0.11910000
C        0.04740000      -0.02580000      -0.00190000
N        1.04610000      -0.71720000      -0.86910000
C        1.44200000      -1.64830000       0.22480000
C        2.80130000      -1.26370000       0.84640000
C        2.07380000      -0.19040000       1.71820000
C        0.69360000      -0.73010000       1.23840000
C       -1.31370000      -0.55420000      -0.20200000
N       -2.37120000      -0.98710000      -0.38360000
H        1.04780000       1.88590000      -0.01010000
H       -0.34160000       1.79770000      -1.10120000
H       -0.61030000       1.94130000       0.64480000
H        0.66080000      -1.15310000      -1.69910000
H        1.20180000      -2.70120000       0.06300000
H        3.23230000      -2.06830000       1.44880000
H        3.55020000      -0.90210000       0.13900000
H        2.22990000      -0.29690000       2.79350000
H        2.28630000       0.84600000       1.44980000
H        0.00860000      -1.08920000       2.00330000
