17
Properties=species:S:1:pos:R:3 gdb_26277=T pbc="F F F"
C        0.14620000       1.38020000      -0.42560000
C        0.02510000       0.00040000       0.24350000
O        0.43020000       0.06870000       1.58930000
C       -1.39340000      -0.53820000       0.13210000
C       -1.95930000      -0.96010000      -1.07680000
N       -3.20740000      -1.41190000      -1.16260000
C       -3.90690000      -1.44310000      -0.02330000
C       -3.35560000      -1.03280000       1.18420000
N       -2.10070000      -0.58320000       1.26130000
H        1.16860000       1.74730000      -0.30590000
H       -0.08580000       1.33320000      -1.49470000
H       -0.53530000       2.09180000       0.05050000
H        0.69340000      -0.69830000      -0.28320000
H       -0.37870000      -0.03860000       2.11400000
H       -1.38010000      -0.93700000      -1.99710000
H       -4.92800000      -1.80970000      -0.07750000
H       -3.92740000      -1.06890000       2.10740000
