17
Properties=species:S:1:pos:R:3 gdb_51963=T pbc="F F F"
O        1.63940000       0.30200000      -1.17680000
C        0.87890000       1.12520000      -0.70580000
N        1.08780000       1.77970000       0.46660000
C        2.35990000       1.64300000       1.14840000
C        3.49130000       2.34730000       0.38240000
O        3.33440000       3.42960000      -0.13560000
N        4.70390000       1.67690000       0.43080000
C        4.94430000       0.41110000      -0.25480000
C        5.61900000       1.67890000      -0.68890000
H       -0.08140000       1.40030000      -1.18060000
H        0.53050000       2.59790000       0.65400000
H        2.27850000       2.10140000       2.13810000
H        2.58570000       0.58380000       1.28070000
H        5.50410000      -0.32920000       0.30990000
H        4.13250000       0.02940000      -0.86780000
H        5.27080000       2.15960000      -1.59840000
H        6.66440000       1.84180000      -0.44440000
