17
Properties=species:S:1:pos:R:3 gdb_73769=T pbc="F F F"
C        0.01280000       1.54610000      -0.03450000
C       -0.01720000       0.05220000       0.04870000
C       -1.10780000      -0.76260000       0.06430000
N       -2.42290000      -0.40310000       0.09370000
C       -0.71340000      -2.20950000       0.05920000
N       -0.00530000      -2.57810000      -1.19880000
C        0.75930000      -2.22490000       0.03240000
C        1.20210000      -0.76330000       0.05200000
O        2.35350000      -0.37690000       0.07050000
H        1.04570000       1.87170000      -0.18480000
H       -0.59030000       1.93080000      -0.86790000
H       -0.35520000       2.02250000       0.88300000
H       -2.65270000       0.55470000      -0.12360000
H       -3.10260000      -1.07740000      -0.22060000
H       -1.30890000      -2.94860000       0.58450000
H       -0.00440000      -3.59640000      -1.27990000
H        1.36100000      -2.98050000       0.52280000
