22
Properties=species:S:1:pos:R:3 gdb_83642=T pbc="F F F"
C       -0.06370000       1.58190000      -0.03210000
N       -0.08170000       0.14710000       0.12910000
C       -1.33470000      -0.53860000       0.47870000
C       -1.56430000      -1.79860000      -0.37360000
O       -0.66260000      -2.56350000       0.47110000
C       -0.54220000      -1.48020000       1.41100000
C        0.68860000      -0.54500000       1.21680000
C        1.97510000      -1.18770000       0.71860000
C        0.90950000       0.30000000       2.47510000
H        0.95740000       1.92000000      -0.23840000
H       -0.67760000       1.85720000      -0.89710000
H       -0.43890000       2.15070000       0.83820000
H       -2.18390000       0.08590000       0.76920000
H       -2.58140000      -2.21050000      -0.33050000
H       -1.21930000      -1.74040000      -1.41070000
H       -0.80400000      -1.77330000       2.43100000
H        1.75550000      -1.87730000      -0.09840000
H        2.67060000      -0.42320000       0.35450000
H        2.47570000      -1.74190000       1.52030000
H        1.34350000      -0.31630000       3.26930000
H        1.59680000       1.13010000       2.28280000
H       -0.02950000       0.72030000       2.85150000
