19
Properties=species:S:1:pos:R:3 gdb_82832=T pbc="F F F"
C       -0.06080000       1.55830000       0.06150000
C       -0.00410000       0.06140000       0.02990000
C        0.58450000      -0.86290000      -1.08560000
C        1.51920000      -1.52240000      -0.04820000
C        0.66960000      -0.90540000       1.09190000
C       -0.68940000      -1.61770000       1.27150000
O       -1.31510000      -1.06290000       2.41480000
C       -1.19590000      -0.94170000      -0.03150000
O       -0.66570000      -1.58200000      -1.20800000
H        0.94440000       1.99560000       0.06520000
H       -0.59430000       1.95400000      -0.81050000
H       -0.57820000       1.90670000       0.96190000
H        0.97520000      -0.55660000      -2.05850000
H        1.62440000      -2.61000000      -0.09560000
H        2.51170000      -1.06060000      -0.07910000
H        1.16010000      -0.57930000       2.00860000
H       -0.69000000      -2.71650000       1.28600000
H       -2.23970000      -1.33370000       2.40640000
H       -2.25990000      -0.69890000      -0.11870000
