16
Properties=species:S:1:pos:R:3 gdb_34849=T pbc="F F F"
N       -0.14680000      -1.22380000      -0.23060000
C       -0.07140000      -0.07470000      -0.12840000
C        0.00140000       1.36730000       0.00950000
C       -0.11930000       2.05470000       1.40460000
C        0.60180000       1.27640000       2.51220000
C        2.00080000       0.93120000       2.04550000
C        2.38850000       1.32520000       0.83280000
C        1.37400000       2.11640000       0.03910000
O        0.75510000       3.10490000       0.91530000
H       -0.67940000       1.84960000      -0.69450000
H       -1.10060000       2.43120000       1.70100000
H        0.63770000       1.89100000       3.42060000
H        0.04240000       0.36760000       2.76920000
H        2.64860000       0.36910000       2.71030000
H        3.36140000       1.10140000       0.41150000
H        1.74540000       2.55500000      -0.88750000
