13
Properties=species:S:1:pos:R:3 gdb_4530=T pbc="F F F"
N       -0.00750000       1.34150000       0.22270000
C       -0.02810000      -0.04590000       0.05430000
N       -1.09390000      -0.81270000       0.00740000
C       -0.61420000      -2.10230000      -0.04990000
O       -1.43360000      -3.18960000      -0.11510000
C        0.74580000      -2.11470000      -0.06090000
O        1.70310000      -3.07970000      -0.13290000
N        1.12340000      -0.77810000       0.00380000
H        0.44360000       1.82730000      -0.54620000
H       -0.96040000       1.67580000       0.30460000
H       -2.33250000      -2.84660000      -0.16620000
H        1.25890000      -3.91080000      -0.33160000
H        2.05940000      -0.44380000       0.15750000
