22
Properties=species:S:1:pos:R:3 gdb_59965=T pbc="F F F"
C        0.25790000       1.43510000      -0.87360000
C        0.08510000       0.13740000      -0.07940000
C       -1.38380000      -0.20310000       0.14830000
O        0.64640000      -1.00010000      -0.73380000
C        2.04740000      -1.06220000      -0.81400000
C        2.42880000      -2.53950000      -0.94110000
C        2.59160000      -0.30840000      -2.04940000
N        3.80120000       0.29870000      -1.85260000
O        2.01290000      -0.29200000      -3.11460000
H        1.30790000       1.73100000      -0.95050000
H       -0.13560000       1.31470000      -1.88620000
H       -0.27840000       2.24960000      -0.37560000
H        0.58190000       0.25270000       0.90040000
H       -1.89720000      -0.32240000      -0.81070000
H       -1.47620000      -1.13950000       0.70470000
H       -1.88120000       0.59150000       0.71210000
H        2.49770000      -0.63940000       0.10120000
H        2.06250000      -3.09400000      -0.07390000
H        1.97070000      -2.95140000      -1.84380000
H        3.51390000      -2.66150000      -1.01100000
H        4.28870000       0.26080000      -0.97500000
H        4.26230000       0.71750000      -2.64410000
