18
Properties=species:S:1:pos:R:3 gdb_32911=T pbc="F F F"
C        0.05840000       1.50530000      -0.15870000
C        0.01710000      -0.02300000      -0.10350000
C       -1.40180000      -0.56620000       0.15670000
C       -1.48200000      -2.04760000       0.20140000
C       -1.78630000      -2.97880000       1.13200000
N       -1.68040000      -4.26380000       0.58830000
C       -1.31960000      -4.02970000      -0.62890000
O       -1.07200000      -4.90090000      -1.60560000
O       -1.17150000      -2.74220000      -0.96780000
H        1.07360000       1.86740000      -0.34650000
H       -0.58570000       1.89110000      -0.95680000
H       -0.28360000       1.94700000       0.78410000
H        0.38890000      -0.44150000      -1.04550000
H        0.68680000      -0.39030000       0.68320000
H       -1.77590000      -0.18670000       1.11440000
H       -2.08040000      -0.17990000      -0.61670000
H       -2.07850000      -2.82500000       2.15880000
H       -1.21570000      -5.77970000      -1.23170000
