17
Properties=species:S:1:pos:R:3 gdb_31767=T pbc="F F F"
O        0.24230000       1.33720000       0.18580000
C        0.01580000      -0.05550000       0.35330000
C       -1.39750000      -0.45180000       0.04030000
C       -2.51370000       0.37070000       0.07370000
N       -3.54310000      -0.48660000      -0.24240000
C       -4.90640000      -0.86030000      -0.67450000
C       -4.33400000      -2.31630000      -0.90750000
C       -3.01380000      -1.70440000      -0.46920000
N       -1.71310000      -1.75800000      -0.32060000
H        0.01740000       1.55020000      -0.72630000
H        0.69810000      -0.66620000      -0.25620000
H        0.25760000      -0.26390000       1.40250000
H       -2.63120000       1.40960000       0.32580000
H       -5.66080000      -0.76030000       0.10960000
H       -5.23650000      -0.34440000      -1.57970000
H       -4.75370000      -3.08420000      -0.25350000
H       -4.38130000      -2.65960000      -1.94360000
