18
Properties=species:S:1:pos:R:3 gdb_67974=T pbc="F F F"
C        0.00420000       1.48570000      -0.01480000
C        0.08520000      -0.02190000       0.02370000
C        0.44500000      -0.70440000      -1.29510000
C        0.31820000      -2.15910000      -0.84680000
O        0.53440000      -3.17330000      -1.45480000
C       -0.12730000      -1.99030000       0.58320000
C        0.68210000      -0.82610000       1.22880000
C       -0.60930000      -0.50760000       1.98850000
N       -1.14870000      -0.81320000       0.58370000
H        0.95660000       1.89900000      -0.36350000
H       -0.77250000       1.79960000      -0.71990000
H       -0.21850000       1.93670000       0.95420000
H       -0.26630000      -0.47330000      -2.09520000
H        1.45280000      -0.47090000      -1.65280000
H       -0.41230000      -2.87120000       1.15580000
H        1.71770000      -0.85240000       1.58750000
H       -0.94570000      -1.22720000       2.73880000
H       -0.79420000       0.51190000       2.33050000
