13
Properties=species:S:1:pos:R:3 gdb_131757=T pbc="F F F"
O        0.11420000       1.25250000      -0.65890000
C       -0.02130000       0.06050000       0.09180000
C       -1.42760000      -0.46730000       0.04920000
N       -2.11690000      -0.63290000       1.14740000
O       -3.37180000      -1.10490000       0.75190000
C       -3.40270000      -1.20140000      -0.57460000
C       -2.20790000      -0.81340000      -1.10710000
C       -1.83280000      -0.77210000      -2.47050000
N       -1.52820000      -0.74960000      -3.58670000
H       -0.40080000       1.94050000      -0.22370000
H        0.65620000      -0.66320000      -0.37190000
H        0.27490000       0.17920000       1.14170000
H       -4.32110000      -1.55560000      -1.01630000
