19
Properties=species:S:1:pos:R:3 gdb_98796=T pbc="F F F"
C        0.28620000       1.53480000       0.13770000
C        0.30710000       0.01730000      -0.02450000
C        0.58790000      -0.44190000      -1.44360000
O        0.72160000       0.31890000      -2.37420000
C        0.75380000      -1.94810000      -1.61560000
C        1.12990000      -2.48280000      -3.02190000
C        2.46060000      -3.08260000      -2.47150000
C        2.12280000      -2.48450000      -1.10200000
O        2.68260000      -2.41130000      -0.04830000
H        1.24970000       1.97000000      -0.13990000
H       -0.47240000       1.98690000      -0.50620000
H        0.07040000       1.80820000       1.17410000
H        1.06070000      -0.45560000       0.62090000
H       -0.64930000      -0.42900000       0.28370000
H       -0.06990000      -2.46720000      -1.11340000
H        0.43330000      -3.21040000      -3.43850000
H        1.27110000      -1.66660000      -3.73090000
H        2.51430000      -4.17550000      -2.45020000
H        3.38960000      -2.70400000      -2.90800000
