23
Properties=species:S:1:pos:R:3 gdb_97737=T pbc="F F F"
C       -0.79950000       0.43430000      -0.09810000
C        0.71100000       0.64380000       0.11550000
C        1.25280000      -0.17080000       1.19900000
C        1.68350000      -0.85170000       2.09750000
C        2.21980000      -1.65190000       3.16070000
C        1.35410000      -2.06200000       4.35470000
C       -0.07290000      -1.58360000       4.49760000
C        1.77750000      -3.10480000       3.35300000
C        0.81550000      -3.76890000       2.39430000
H       -1.35850000       0.69000000       0.80640000
H       -1.16150000       1.06370000      -0.91670000
H       -1.01570000      -0.60900000      -0.34440000
H        1.24420000       0.41770000      -0.81730000
H        0.90470000       1.70470000       0.32170000
H        3.26240000      -1.44620000       3.38800000
H        1.89890000      -2.08910000       5.29530000
H       -0.55410000      -1.43850000       3.52830000
H       -0.67070000      -2.29840000       5.07380000
H       -0.10440000      -0.62270000       5.02240000
H        2.57690000      -3.76030000       3.69000000
H        0.09750000      -3.05840000       1.97960000
H        1.35770000      -4.21160000       1.55190000
H        0.25730000      -4.57070000       2.89030000
