22
Properties=species:S:1:pos:R:3 gdb_103543=T pbc="F F F"
C        0.15900000       1.64360000       0.04370000
C        0.23390000       0.11300000       0.02470000
C        0.72110000      -0.49350000      -1.31140000
C       -0.20050000      -0.11530000      -2.47560000
N        2.09450000       0.01250000      -1.57420000
C        2.87090000      -0.97970000      -1.45270000
O        2.37170000      -2.20630000      -1.18370000
C        0.92410000      -2.05230000      -1.25250000
C        0.28800000      -2.85150000      -0.12930000
H        1.11210000       2.07890000      -0.26610000
H       -0.62100000       2.02420000      -0.62230000
H       -0.07180000       1.99920000       1.05260000
H        0.91810000      -0.21380000       0.81620000
H       -0.74920000      -0.30860000       0.26780000
H       -0.24550000       0.96780000      -2.60450000
H        0.16890000      -0.54600000      -3.41080000
H       -1.21780000      -0.48630000      -2.30380000
H        3.95230000      -0.94590000      -1.53910000
H        0.61970000      -2.48500000      -2.21440000
H        0.60450000      -2.49580000       0.85360000
H       -0.80300000      -2.78850000      -0.18870000
H        0.56980000      -3.90440000      -0.21820000
