15
Properties=species:S:1:pos:R:3 gdb_31475=T pbc="F F F"
O        0.07570000       1.30700000       0.46720000
C        0.00120000       0.00540000      -0.08490000
C       -1.42060000      -0.45210000      -0.01210000
C       -2.59080000       0.25800000      -0.09460000
C       -3.66600000      -0.68180000       0.00040000
C       -3.10520000      -1.93990000       0.13650000
N       -1.75190000      -1.78270000       0.12990000
C       -5.05290000      -0.39650000      -0.03320000
N       -6.18610000      -0.15660000      -0.06380000
H        0.91100000       1.69910000       0.19590000
H        0.34880000       0.00380000      -1.13140000
H        0.64430000      -0.70710000       0.46180000
H       -2.67770000       1.32630000      -0.19940000
H       -3.56940000      -2.90620000       0.24080000
H       -1.08910000      -2.53280000       0.23200000
