21
Properties=species:S:1:pos:R:3 gdb_70148=T pbc="F F F"
C       -0.18710000       1.49250000      -0.03600000
C       -0.00840000      -0.00690000       0.03250000
C       -0.76870000      -0.82560000       1.03480000
C        0.73550000      -0.64980000       1.18890000
C        1.66490000      -1.78190000       0.92710000
C        2.50790000      -1.79280000      -0.10600000
C        2.58400000      -0.64750000      -1.08630000
C        1.30220000      -0.47710000      -1.92820000
O        0.09110000      -0.65430000      -1.20840000
H        0.68940000       1.98400000      -0.47390000
H       -1.05810000       1.74500000      -0.64990000
H       -0.33630000       1.91310000       0.96270000
H       -1.42200000      -0.31890000       1.73690000
H       -1.12200000      -1.78900000       0.68530000
H        1.03370000       0.01950000       1.99600000
H        1.64650000      -2.61560000       1.62670000
H        3.16150000      -2.64690000      -0.26210000
H        2.77840000       0.28340000      -0.54010000
H        3.42200000      -0.77540000      -1.77930000
H        1.32630000       0.50670000      -2.42180000
H        1.26340000      -1.23740000      -2.71470000
