19
Properties=species:S:1:pos:R:3 gdb_90904=T pbc="F F F"
C       -0.33160000       1.51540000      -0.03090000
C        0.00300000       0.03110000      -0.01240000
C        1.15020000      -0.42300000      -1.05560000
C        2.15770000      -0.19740000       0.12470000
C        2.90310000      -0.86410000       1.35340000
O        1.91080000      -0.12130000       2.20470000
C        1.01890000      -0.50370000       1.04650000
C        1.04250000      -2.03820000       1.18940000
C        2.33670000      -2.28190000       1.39160000
H        0.56090000       2.14210000       0.05100000
H       -0.84330000       1.77820000      -0.96260000
H       -0.99620000       1.77300000       0.79970000
H       -0.91870000      -0.55840000      -0.06890000
H        1.01920000      -1.46470000      -1.35310000
H        1.28220000       0.20800000      -1.93800000
H        2.39150000       0.86850000       0.16640000
H        3.93770000      -0.66010000       1.63030000
H        0.18800000      -2.69790000       1.13620000
H        2.87890000      -3.19910000       1.56690000
