25
Properties=species:S:1:pos:R:3 gdb_105049=T pbc="F F F"
C       -0.12350000       1.54670000       0.12430000
C       -0.20090000       0.05160000      -0.20520000
C        0.70880000      -0.47600000      -1.32000000
C        0.78680000       0.33680000      -2.59560000
C        1.96960000       0.29220000      -1.66020000
C        0.79200000      -2.00070000      -1.42150000
C        1.25700000      -2.57610000      -2.75090000
C        1.23380000      -2.77190000      -0.19480000
C       -0.19430000      -2.87490000      -0.67280000
H        0.85390000       1.82780000       0.52690000
H       -0.32640000       2.18050000      -0.74450000
H       -0.87070000       1.79390000       0.88480000
H        0.00960000      -0.49860000       0.72030000
H       -1.23760000      -0.19210000      -0.47020000
H        0.86600000      -0.17720000      -3.54500000
H        0.21630000       1.25750000      -2.65090000
H        2.21010000       1.18480000      -1.09520000
H        2.84140000      -0.27500000      -1.96820000
H        2.22310000      -2.16830000      -3.06800000
H        1.37690000      -3.66050000      -2.66950000
H        0.53190000      -2.38690000      -3.54950000
H        1.89280000      -3.62220000      -0.33640000
H        1.42120000      -2.22070000       0.72080000
H       -0.96540000      -2.41730000      -0.06610000
H       -0.50960000      -3.79430000      -1.15560000
