21
Properties=species:S:1:pos:R:3 gdb_105670=T pbc="F F F"
C        0.13240000       1.59610000       0.33840000
C       -0.01040000       0.09210000       0.07530000
C        0.66570000      -0.41060000      -1.21620000
C        2.22690000      -0.46700000      -1.12080000
C        2.11740000      -1.98590000      -0.80600000
C        0.67200000      -1.97400000      -1.33490000
O       -0.23660000      -2.72490000      -0.56980000
C        0.10640000       0.30120000      -2.42090000
O       -0.72920000      -0.17190000      -3.15340000
H        1.18190000       1.90890000       0.35130000
H       -0.38340000       2.19750000      -0.41700000
H       -0.29910000       1.85370000       1.31020000
H        0.40850000      -0.47090000       0.91630000
H       -1.07120000      -0.17950000       0.03640000
H        2.71590000      -0.26850000      -2.07920000
H        2.69250000       0.16310000      -0.36010000
H        2.82480000      -2.65920000      -1.29380000
H        2.12760000      -2.18230000       0.26890000
H        0.62490000      -2.25830000      -2.39310000
H       -1.07220000      -2.75430000      -1.04730000
H        0.52130000       1.31670000      -2.61800000
