18
Properties=species:S:1:pos:R:3 gdb_51013=T pbc="F F F"
N       -1.05970000       1.20440000      -1.31650000
C       -1.32240000      -0.02240000      -1.19260000
O       -1.06300000      -0.64780000      -0.01930000
C       -1.22460000      -2.05450000      -0.00090000
C       -0.03260000      -2.80250000      -0.57250000
C        1.22970000      -2.58440000       0.24630000
O        1.96340000      -3.47370000       0.59330000
C       -1.92990000      -2.57420000       1.21400000
C       -2.62300000      -2.60270000      -0.13290000
H       -1.33460000       1.52700000      -2.24210000
H       -1.77320000      -0.68040000      -1.94610000
H       -0.22960000      -3.87640000      -0.62210000
H        0.16230000      -2.44940000      -1.59570000
H        1.43660000      -1.52530000       0.50900000
H       -1.58350000      -3.50780000       1.64250000
H       -2.26710000      -1.83590000       1.93150000
H       -3.42440000      -1.89000000      -0.29070000
H       -2.75720000      -3.55480000      -0.63400000
