18
Properties=species:S:1:pos:R:3 gdb_97310=T pbc="F F F"
C        0.24370000       1.56200000       0.76680000
N        0.33620000       0.18010000       1.19160000
C        0.30790000      -0.70740000       0.28610000
N        0.40390000      -2.04610000       0.59240000
C        0.46370000      -2.56900000       1.94880000
C        0.74380000      -4.06960000       1.70790000
N        0.27480000      -4.24980000       0.34000000
C        0.26560000      -3.06080000      -0.36190000
O        0.14570000      -2.90890000      -1.55630000
H        1.13160000       2.11240000       1.10030000
H        0.14870000       1.68750000      -0.32360000
H       -0.62050000       2.03840000       1.24480000
H        0.21420000      -0.53150000      -0.79100000
H        1.24530000      -2.07100000       2.52500000
H       -0.48950000      -2.40510000       2.46470000
H        1.81510000      -4.29180000       1.80620000
H        0.19700000      -4.70420000       2.40990000
H        0.48220000      -5.08550000      -0.18260000
