23
Properties=species:S:1:pos:R:3 gdb_103427=T pbc="F F F"
C        1.21700000       0.25370000       1.24000000
C        0.28900000       0.51120000       0.04880000
C        0.80920000      -0.09690000      -1.25400000
O        2.08320000       0.44950000      -1.58380000
C        0.94330000      -1.62170000      -1.35230000
C       -0.39730000      -2.29800000      -1.28740000
C        0.03020000      -1.65390000      -2.57600000
C       -0.14460000      -0.12750000      -2.52300000
C       -1.55410000       0.45250000      -2.48480000
H        1.29830000      -0.81890000       1.44520000
H        2.22270000       0.62870000       1.03390000
H        0.84380000       0.74040000       2.14610000
H       -0.71240000       0.12400000       0.26500000
H        0.16170000       1.59400000      -0.10060000
H        1.98030000       1.40480000      -1.66210000
H        1.87410000      -2.14760000      -1.18150000
H       -0.35940000      -3.38280000      -1.28000000
H       -1.20900000      -1.88980000      -0.69120000
H        0.14390000      -2.23250000      -3.48500000
H        0.42430000       0.33360000      -3.33610000
H       -2.17140000      -0.00830000      -1.70780000
H       -1.54030000       1.53280000      -2.30100000
H       -2.06050000       0.28910000      -3.44260000
