19
Properties=species:S:1:pos:R:3 gdb_55469=T pbc="F F F"
N        0.02420000       1.29470000       0.16380000
C        0.03940000      -0.05870000       0.00910000
O        1.05720000      -0.68760000      -0.21600000
C       -1.32670000      -0.74270000       0.04350000
C       -1.86110000      -0.85970000      -1.40430000
O       -3.03720000      -1.64320000      -1.44940000
C       -2.80370000      -2.96000000      -0.96710000
C       -2.32670000      -2.91700000       0.48530000
N       -1.16970000      -2.04480000       0.68420000
H        0.90890000       1.77710000       0.17750000
H       -0.78700000       1.77550000       0.51140000
H       -2.04730000      -0.14990000       0.62430000
H       -2.12220000       0.12170000      -1.81280000
H       -1.07310000      -1.30590000      -2.03370000
H       -3.75240000      -3.49750000      -1.06340000
H       -2.05180000      -3.46350000      -1.59930000
H       -3.14980000      -2.54770000       1.11190000
H       -2.07360000      -3.92260000       0.83730000
H       -0.31550000      -2.46170000       0.32350000
