21
Properties=species:S:1:pos:R:3 gdb_119493=T pbc="F F F"
C        0.05460000       1.51590000      -0.05360000
C        0.19770000       0.00750000       0.04450000
O        0.50070000      -0.49690000      -1.25420000
C        0.62570000      -1.86630000      -1.29410000
C        1.87930000      -2.58630000      -0.87250000
C        1.37860000      -2.68800000      -2.30390000
C        0.13650000      -3.61100000      -2.47510000
C       -0.35810000      -4.24570000      -1.20180000
C       -0.62810000      -2.78690000      -1.45340000
H        0.98110000       1.96590000      -0.42180000
H       -0.75170000       1.78240000      -0.74290000
H       -0.17250000       1.94170000       0.92840000
H        1.00050000      -0.26820000       0.74480000
H       -0.73200000      -0.44860000       0.41770000
H        2.72810000      -1.91490000      -0.77800000
H        1.90980000      -3.42800000      -0.18880000
H        1.98170000      -2.35470000      -3.13790000
H       -0.20310000      -3.94260000      -3.44770000
H       -1.22480000      -4.88750000      -1.33580000
H        0.30880000      -4.59070000      -0.41950000
H       -1.62560000      -2.37550000      -1.54060000
