15
Properties=species:S:1:pos:R:3 gdb_133839=T pbc="F F F"
O        0.48020000      -2.82740000       0.80200000
C        1.68430000      -3.24660000       0.30730000
C        2.16350000      -4.65530000      -0.01010000
C        2.13260000      -3.52920000      -1.07630000
C        3.55260000      -2.98840000      -1.07780000
C        4.57860000      -3.82330000      -0.36220000
C        3.56350000      -4.43130000       0.63560000
C        3.15510000      -2.96150000       0.80810000
C        4.24750000      -2.33790000       0.02370000
H        0.24670000      -1.99150000       0.38220000
H        1.55170000      -5.54830000      -0.07170000
H        1.51840000      -3.61300000      -1.96400000
H        5.48850000      -4.21410000      -0.81000000
H        3.83570000      -5.03250000       1.50630000
H        4.76130000      -1.38730000       0.09690000
