17
Properties=species:S:1:pos:R:3 gdb_6327=T pbc="F F F"
C       -0.45670000       1.80750000       0.78010000
N       -0.74150000       0.39670000       0.59060000
C        0.20330000      -0.45740000       0.58880000
C        1.67810000      -0.21270000       0.76980000
N       -0.21950000      -1.78480000       0.41330000
C        0.53380000      -2.93160000       0.22140000
N       -0.25300000      -4.06170000       0.05530000
O        1.74700000      -2.96840000       0.16000000
H        0.22960000       2.21240000       0.02370000
H       -1.39360000       2.36610000       0.70430000
H       -0.02660000       2.02340000       1.76830000
H        2.07430000      -0.82620000       1.58200000
H        2.23000000      -0.51070000      -0.12410000
H        1.86290000       0.83950000       0.98350000
H       -1.22140000      -1.83820000       0.29290000
H       -1.15240000      -4.10140000       0.50970000
H        0.27950000      -4.91660000       0.10280000
