15
Properties=species:S:1:pos:R:3 gdb_109104=T pbc="F F F"
O       -0.03130000       1.44730000       0.04960000
C        0.01320000       0.02910000       0.00520000
C       -1.38670000      -0.48400000       0.00190000
C       -2.52890000       0.23770000      -0.01460000
N       -3.67020000      -0.55730000      -0.06400000
C       -3.31130000      -1.90420000       0.00610000
N       -4.02790000      -2.94720000       0.06470000
C       -1.76240000      -1.89880000       0.00440000
O       -1.05680000      -2.88180000       0.00300000
H        0.87180000       1.77560000       0.03290000
H        0.54200000      -0.33120000      -0.89240000
H        0.55440000      -0.38780000       0.87000000
H       -2.62350000       1.31410000      -0.01340000
H       -4.59650000      -0.21350000       0.12390000
H       -5.02740000      -2.72610000       0.05560000
