13
Properties=species:S:1:pos:R:3 gdb_51409=T pbc="F F F"
O        0.58570000       0.03130000       0.07710000
C        0.65840000       1.19350000       0.32530000
O        0.56920000       2.13320000      -0.65310000
C        0.79660000       3.49380000      -0.39490000
C        1.29960000       3.98380000       0.99640000
O        2.61680000       3.35710000       0.69680000
C        2.26030000       3.97940000      -0.60920000
C        1.90180000       5.21150000       0.25410000
O        2.11070000       6.36920000       0.38160000
H        0.77130000       1.61870000       1.33330000
H        0.00090000       4.07130000      -0.87190000
H        0.88980000       3.87450000       1.99700000
H        2.92860000       3.82040000      -1.45110000
