20
Properties=species:S:1:pos:R:3 gdb_88768=T pbc="F F F"
O       -0.00930000       1.43700000       0.16660000
C        0.00130000       0.03700000       0.10760000
C       -0.57160000      -0.75520000       1.25630000
C       -1.32620000      -0.64240000      -0.05830000
C       -2.59510000       0.16210000      -0.13920000
C       -3.11550000       0.61440000      -1.55970000
C       -4.41780000      -0.13910000      -1.27770000
N       -4.03070000      -1.55760000      -1.06930000
C       -3.92480000      -0.58880000       0.05120000
H        0.65120000       1.70970000       0.81160000
H        0.85320000      -0.38510000      -0.42580000
H       -0.11660000      -1.70220000       1.52640000
H       -0.95530000      -0.17940000       2.09310000
H       -1.33320000      -1.52820000      -0.68540000
H       -2.53780000       1.02900000       0.52170000
H       -3.23490000       1.69720000      -1.62940000
H       -2.54960000       0.25100000      -2.42120000
H       -5.42070000       0.11550000      -1.59810000
H       -4.89160000      -2.08410000      -0.92180000
H       -4.45980000      -0.76190000       0.97770000
