21
Properties=species:S:1:pos:R:3 gdb_71577=T pbc="F F F"
C       -0.04730000       1.48790000       0.08820000
C        0.03080000      -0.01890000       0.03180000
C        0.92050000      -0.76580000      -1.00800000
C        0.84770000      -1.91170000       0.00670000
C        0.74360000      -0.88590000       1.17360000
C       -0.29260000      -1.77120000       1.88380000
C       -0.67930000      -2.14780000       0.42700000
O       -1.41400000      -3.28060000       0.09230000
C       -1.28090000      -0.83060000      -0.08310000
H        0.94840000       1.93540000       0.18060000
H       -0.51090000       1.89310000      -0.81910000
H       -0.64560000       1.82360000       0.94310000
H        0.51950000      -0.90370000      -2.01810000
H        1.93180000      -0.34970000      -1.06780000
H        1.51510000      -2.77430000       0.02460000
H        1.61400000      -0.45590000       1.66680000
H        0.20430000      -2.59410000       2.41090000
H       -1.06200000      -1.32940000       2.52540000
H       -0.99350000      -4.04520000       0.49870000
H       -2.09000000      -0.46980000       0.55940000
H       -1.64880000      -0.89610000      -1.11100000
