17
Properties=species:S:1:pos:R:3 gdb_28872=T pbc="F F F"
C       -0.04070000       1.49690000       0.07550000
C        0.00040000      -0.00460000      -0.00850000
C        0.03700000      -0.65680000      -1.24440000
C        0.03830000       0.07440000      -2.55990000
C        0.07290000      -2.05540000      -1.17000000
O        0.10990000      -2.77800000      -2.30550000
N        0.07300000      -2.73280000      -0.02570000
C        0.03610000      -1.99610000       1.08400000
N       -0.00030000      -0.67240000       1.16070000
H        0.83520000       1.94540000      -0.40730000
H       -0.92210000       1.89920000      -0.43700000
H       -0.06640000       1.80360000       1.12120000
H        0.90260000       0.74340000      -2.64470000
H        0.06970000      -0.62570000      -3.39500000
H       -0.85670000       0.69720000      -2.67210000
H        0.13010000      -3.70510000      -2.02860000
H        0.03580000      -2.54250000       2.02450000
