20
Properties=species:S:1:pos:R:3 gdb_110444=T pbc="F F F"
C        0.06990000       1.63070000       0.09810000
C        0.15810000       0.11480000       0.06040000
C        0.76730000      -0.65310000      -1.10690000
C        2.28110000      -0.76790000      -0.81160000
C        1.28640000      -1.66190000      -0.13220000
N        1.15450000      -0.59220000       0.97910000
C        2.50450000      -0.05990000       0.51310000
C        3.57400000      -0.64600000       1.42590000
O        3.34300000      -0.24530000       2.76120000
H        0.95950000       2.11960000      -0.30500000
H       -0.78750000       1.96350000      -0.49630000
H       -0.08080000       1.97730000       1.12630000
H       -0.82030000      -0.31190000       0.30660000
H        0.37640000      -0.82720000      -2.10230000
H        2.98430000      -1.02130000      -1.59560000
H        1.16710000      -2.72800000      -0.00720000
H        2.57820000       1.03150000       0.53500000
H        3.58660000      -1.74390000       1.32560000
H        4.56520000      -0.27600000       1.14120000
H        2.40070000      -0.41000000       2.90610000
