15
Properties=species:S:1:pos:R:3 gdb_128912=T pbc="F F F"
N        0.01040000      -1.15500000       0.07610000
C        0.00770000      -0.00150000       0.14530000
C        0.02290000       1.45660000       0.22470000
C        1.35700000       2.05910000      -0.27220000
C        1.37150000       3.54520000      -0.11340000
N        1.62920000       4.37010000      -1.11760000
N        1.54580000       5.58310000      -0.51990000
C        1.24170000       5.44260000       0.78440000
N        1.12330000       4.16430000       1.08130000
H       -0.81170000       1.84980000      -0.36600000
H       -0.14910000       1.76230000       1.26150000
H        2.17750000       1.61950000       0.30500000
H        1.52270000       1.81030000      -1.32240000
H        1.70200000       6.41960000      -1.05810000
H        1.12160000       6.27620000       1.45990000
