16
Properties=species:S:1:pos:R:3 gdb_70399=T pbc="F F F"
C       -0.17440000       1.52070000       0.07020000
C        0.11330000       0.05690000       0.03690000
O       -0.73140000      -0.83750000       0.75630000
C        0.67900000      -0.91310000       0.99480000
C        1.24560000      -1.81140000      -0.10660000
C        0.67900000      -0.76670000      -1.15810000
O       -0.31060000      -1.16950000      -2.06300000
C        1.77180000      -0.05550000      -1.83930000
N        2.62680000       0.49210000      -2.39280000
H        0.67720000       2.09370000      -0.30700000
H       -1.04520000       1.75100000      -0.55250000
H       -0.39090000       1.83590000       1.09380000
H        1.02930000      -0.76840000       2.00950000
H        2.33330000      -1.89380000      -0.12730000
H        0.77890000      -2.79620000      -0.17180000
H        0.09810000      -1.68820000      -2.76530000
