14
Properties=species:S:1:pos:R:3 gdb_43617=T pbc="F F F"
O       -0.00170000       0.06450000      -0.28340000
C       -0.01430000       1.22590000      -0.01080000
C       -1.13680000       2.23620000       0.27990000
C       -0.03130000       3.23060000       0.79400000
C        1.08720000       2.26730000       0.24940000
C       -0.05730000       4.57410000       0.27020000
C       -0.07920000       5.69560000      -0.18140000
C       -0.10400000       6.96210000      -0.68910000
N       -0.12520000       8.04030000      -1.12180000
H       -1.62860000       2.57690000      -0.63580000
H       -1.89860000       1.92920000       0.99930000
H       -0.01670000       3.26260000       1.88720000
H        1.87670000       1.98200000       0.94760000
H        1.54400000       2.62130000      -0.67930000
