14
Properties=species:S:1:pos:R:3 gdb_42254=T pbc="F F F"
O       -0.35060000      -0.00730000      -0.26560000
C       -0.25750000       1.16230000       0.02540000
C        0.97830000       1.91720000      -0.10220000
C        2.01100000       2.51910000      -0.23450000
N       -1.29380000       1.89850000       0.59660000
C       -1.77940000       3.18440000       0.16310000
C       -2.66420000       1.95470000       0.10630000
C       -3.01610000       1.38850000      -1.16620000
C       -3.33790000       0.92040000      -2.22470000
H        2.93060000       3.03860000      -0.35380000
H       -1.94470000       3.92220000       0.94340000
H       -1.41840000       3.57260000      -0.78530000
H       -3.41230000       1.83800000       0.88710000
H       -3.61030000       0.49420000      -3.15880000
