20
Properties=species:S:1:pos:R:3 gdb_88886=T pbc="F F F"
C        0.14460000       1.63000000      -0.34520000
C        0.00820000       0.14690000      -0.08630000
C        1.22430000      -0.73070000       0.04420000
C        0.36360000      -0.45580000       1.26140000
N        0.90880000       0.40770000       2.25710000
C        0.67840000       0.19300000       3.46690000
C        1.06360000       0.85830000       4.77030000
C        0.22720000      -0.27480000       5.40030000
O       -0.06620000      -0.81150000       4.07630000
H        0.99270000       2.04520000       0.20330000
H        0.29270000       1.82740000      -1.41280000
H       -0.75350000       2.17120000      -0.02670000
H       -0.85300000      -0.31620000      -0.56190000
H        1.21070000      -1.73000000      -0.37700000
H        2.19260000      -0.24230000       0.02940000
H       -0.26590000      -1.27120000       1.61010000
H        2.13170000       0.84650000       4.99450000
H        0.67640000       1.87020000       4.90260000
H        0.77490000      -1.00230000       6.00470000
H       -0.68970000       0.02720000       5.91260000
