17
Properties=species:S:1:pos:R:3 gdb_74130=T pbc="F F F"
C       -0.01750000       1.50520000       0.05390000
C       -0.01860000       0.00760000      -0.04190000
C       -0.06200000      -0.63580000      -1.22100000
C       -0.07890000      -2.10120000      -1.35650000
O       -0.21660000      -2.65610000      -2.42610000
C        0.10890000      -2.90780000      -0.06580000
C       -0.41310000      -2.19150000       1.16240000
O       -1.11840000      -2.71760000       1.98690000
C        0.01730000      -0.73340000       1.27460000
H        0.85510000       1.85660000       0.61890000
H       -0.00700000       1.97610000      -0.93120000
H       -0.90140000       1.85710000       0.60010000
H       -0.10530000      -0.08530000      -2.15590000
H       -0.34060000      -3.89620000      -0.16750000
H        1.19440000      -3.03540000       0.06260000
H        1.04470000      -0.71110000       1.67130000
H       -0.60950000      -0.24150000       2.02520000
