19
Properties=species:S:1:pos:R:3 gdb_68095=T pbc="F F F"
C       -0.04160000       1.51070000      -0.05550000
C       -0.00840000       0.00520000      -0.00570000
C        0.68080000      -0.88730000      -1.09990000
C       -0.25970000      -2.03240000      -0.53540000
O       -0.59200000      -3.18770000      -1.21200000
C        0.29780000      -2.20800000       0.88650000
C        0.47770000      -0.70390000       1.28550000
C       -1.23090000      -0.86000000      -0.36210000
O       -2.37030000      -0.66820000      -0.68460000
H        0.96150000       1.93540000       0.05900000
H       -0.45610000       1.86610000      -1.00380000
H       -0.66690000       1.91040000       0.75020000
H        0.43360000      -0.59210000      -2.12170000
H        1.75440000      -1.05370000      -0.98230000
H       -1.34680000      -2.98960000      -1.78010000
H       -0.40500000      -2.74420000       1.52890000
H        1.24010000      -2.76200000       0.87610000
H        1.52000000      -0.45110000       1.50120000
H       -0.12240000      -0.42390000       2.15600000
