14
Properties=species:S:1:pos:R:3 gdb_818=T pbc="F F F"
O       -0.17910000       1.33580000       0.03470000
N        0.02390000      -0.05890000       0.05740000
C       -1.08860000      -0.66950000       0.01990000
C       -1.22540000      -2.17200000       0.04240000
C       -2.69400000      -2.31640000       0.47560000
O       -3.36100000      -1.19210000      -0.09030000
C       -2.48230000      -0.07970000      -0.00430000
H        0.72130000       1.67470000       0.07550000
H       -1.08450000      -2.58010000      -0.96530000
H       -0.51010000      -2.65400000       0.71100000
H       -3.18160000      -3.21820000       0.09940000
H       -2.77550000      -2.30620000       1.57450000
H       -2.65490000       0.51280000       0.90880000
H       -2.64830000       0.57840000      -0.86270000
