20
Properties=species:S:1:pos:R:3 gdb_26422=T pbc="F F F"
C        0.11130000       1.50670000      -0.06750000
C        0.08300000      -0.00680000       0.14620000
O        0.58430000      -0.35770000       1.43220000
C       -1.32730000      -0.57760000      -0.08370000
N       -1.37810000      -2.02310000      -0.17090000
C       -1.74730000      -2.72990000      -1.29280000
C       -1.69000000      -4.07160000      -0.99990000
C       -1.27100000      -4.18680000       0.35420000
C       -1.08860000      -2.91240000       0.83840000
H        1.10870000       1.89540000       0.15230000
H       -0.14600000       1.77140000      -1.09790000
H       -0.60520000       2.00950000       0.59510000
H        0.76570000      -0.49340000      -0.55930000
H        0.10060000       0.15930000       2.08680000
H       -1.98490000      -0.22780000       0.72500000
H       -1.73170000      -0.18050000      -1.01920000
H       -2.02830000      -2.21070000      -2.19580000
H       -1.92660000      -4.87700000      -1.67830000
H       -1.11820000      -5.09920000       0.91030000
H       -0.74610000      -2.55390000       1.79360000
