17
Properties=species:S:1:pos:R:3 gdb_46314=T pbc="F F F"
N        0.01560000       1.13950000      -0.54490000
C        0.04870000      -0.03760000      -0.08830000
N        0.96320000      -0.87230000       0.54490000
C        0.11540000      -2.07380000       0.45860000
C       -1.03310000      -1.13390000      -0.02670000
C       -2.24330000      -0.85060000       0.88870000
O       -3.32580000      -1.47690000       0.21560000
C       -3.01310000      -1.32570000      -1.14190000
O       -1.61200000      -1.51980000      -1.25270000
H        0.91760000       1.61230000      -0.46530000
H        1.96960000      -0.83400000       0.48040000
H        0.40480000      -2.78610000      -0.32020000
H       -0.03100000      -2.59170000       1.41130000
H       -2.15310000      -1.28210000       1.88700000
H       -2.40060000       0.23440000       0.96810000
H       -3.53090000      -2.09490000      -1.72100000
H       -3.28030000      -0.31840000      -1.50390000
