14
Properties=species:S:1:pos:R:3 gdb_24175=T pbc="F F F"
C        0.00140000       1.30090000       0.00950000
C        1.28240000       1.81010000      -0.00020000
N        2.10330000       0.71050000      -0.01410000
C        3.45570000       0.56040000      -0.02810000
C        3.96420000      -0.70500000      -0.03990000
C        3.06080000      -1.80100000      -0.03700000
N        1.75310000      -1.67420000      -0.02370000
C        1.24960000      -0.43120000      -0.01200000
N       -0.02010000      -0.05990000       0.00230000
H       -0.91580000       1.87190000       0.02150000
H        1.67060000       2.81500000       0.00140000
H        4.05350000       1.46390000      -0.02900000
H        5.03410000      -0.86430000      -0.05110000
H        3.45090000      -2.81600000      -0.04630000
