18
Properties=species:S:1:pos:R:3 gdb_54278=T pbc="F F F"
C       -0.14650000       0.17270000      -1.38060000
C       -0.11610000      -0.37110000       0.02920000
O        0.92910000      -0.55370000       0.62100000
C       -1.42430000      -0.68920000       0.72110000
C       -2.73960000      -0.11250000       0.19950000
C       -3.24370000      -0.75790000      -1.00940000
C       -3.66250000      -1.30260000      -1.99580000
C       -1.44080000      -2.01750000       1.41630000
N       -1.33580000      -0.78640000       2.18900000
H        0.87300000       0.24080000      -1.76070000
H       -0.76250000      -0.45540000      -2.03000000
H       -0.60070000       1.17070000      -1.38840000
H       -3.47340000      -0.22080000       1.00540000
H       -2.63810000       0.96730000       0.03130000
H       -4.04050000      -1.77980000      -2.86600000
H       -2.38770000      -2.54510000       1.49490000
H       -0.55830000      -2.64140000       1.31160000
H       -0.35380000      -0.64670000       2.43180000
