14
Properties=species:S:1:pos:R:3 gdb_25791=T pbc="F F F"
N       -0.08900000       1.30890000      -0.03470000
C       -0.00200000      -0.04360000       0.01060000
O        1.04300000      -0.67740000       0.05650000
C       -1.30730000      -0.73250000      -0.00220000
N       -2.52460000      -0.19940000      -0.05110000
C       -3.37270000      -1.25960000      -0.04000000
O       -4.71280000      -1.11060000      -0.07980000
C       -2.68340000      -2.45520000       0.01560000
N       -1.36130000      -2.08180000       0.03870000
H        0.75500000       1.85480000      -0.03220000
H       -0.99020000       1.75480000      -0.07350000
H       -4.88360000      -0.16170000      -0.11450000
H       -3.00970000      -3.47930000       0.03920000
H       -0.53760000      -2.66170000       0.07860000
