13
Properties=species:S:1:pos:R:3 gdb_133146=T pbc="F F F"
C       -0.03160000       1.52740000       0.01000000
C       -0.00850000       0.02830000      -0.04290000
C       -1.08550000      -0.75020000       0.17890000
F       -2.27400000      -0.24820000       0.46690000
C       -1.02840000      -2.21070000       0.11950000
O       -1.94460000      -2.96030000       0.30540000
O        0.22110000      -2.72960000      -0.18300000
N        1.35150000      -1.96220000      -0.41750000
C        1.20840000      -0.68430000      -0.34410000
H        0.66920000       1.89740000       0.76620000
H        0.27550000       1.95200000      -0.95200000
H       -1.02890000       1.89620000       0.25020000
H        2.12330000      -0.13030000      -0.53590000
