19
Properties=species:S:1:pos:R:3 gdb_66937=T pbc="F F F"
C       -0.01890000       1.52170000       0.12390000
C       -0.08690000       0.02930000       0.05960000
C        0.11760000      -1.01010000       1.10490000
C       -0.47280000      -2.05570000       0.08030000
C        0.93750000      -2.06200000      -0.52870000
N        1.21700000      -0.73900000       0.13560000
C       -1.09480000      -0.85560000      -0.64250000
C       -2.51100000      -0.54910000      -0.90330000
N       -1.57330000      -0.85450000      -2.01570000
H        0.78270000       1.83380000       0.79800000
H        0.19320000       1.95180000      -0.86180000
H       -0.96150000       1.94590000       0.48600000
H        0.21300000      -0.96130000       2.18170000
H       -1.04970000      -2.95490000       0.28590000
H        1.60600000      -2.80770000      -0.09170000
H        1.01820000      -2.07070000      -1.62130000
H       -3.27790000      -1.30120000      -0.73740000
H       -2.85190000       0.47600000      -0.77680000
H       -1.30560000       0.00320000      -2.49370000
