21
Properties=species:S:1:pos:R:3 gdb_60232=T pbc="F F F"
C        0.11120000       1.51960000      -0.19250000
C        0.06930000       0.00430000       0.04700000
C        0.73190000      -0.35590000       1.38460000
C       -1.37940000      -0.51040000      -0.04890000
C       -1.52740000      -2.02540000      -0.07020000
O       -1.36310000      -2.69380000       1.21190000
C       -2.67160000      -3.29670000       1.18870000
C       -2.95570000      -2.58890000      -0.14170000
O       -3.88010000      -2.48520000      -0.88760000
H        1.13930000       1.89410000      -0.15590000
H       -0.30980000       1.78570000      -1.16780000
H       -0.46210000       2.05280000       0.57520000
H        0.64110000      -0.47980000      -0.75860000
H        0.19930000       0.11710000       2.21840000
H        0.72970000      -1.43310000       1.56490000
H        1.76790000      -0.00200000       1.40920000
H       -1.97710000      -0.10590000       0.77850000
H       -1.83630000      -0.14350000      -0.97770000
H       -0.86270000      -2.46810000      -0.82800000
H       -2.64100000      -4.39270000       1.13310000
H       -3.30180000      -2.99330000       2.03410000
