20
Properties=species:S:1:pos:R:3 gdb_12804=T pbc="F F F"
C       -0.08150000       1.52760000       0.02830000
C       -0.01050000       0.01100000       0.00630000
C       -0.84080000      -0.74870000       1.02400000
C        0.66790000      -0.71220000       1.14870000
C        1.49380000      -1.96060000       0.83610000
C        2.14920000      -1.90450000      -0.55730000
C        1.17270000      -1.44210000      -1.61270000
C        0.18490000      -0.58810000      -1.34330000
H        0.83500000       1.97390000      -0.37350000
H       -0.92080000       1.89220000      -0.57640000
H       -0.22010000       1.90110000       1.04810000
H       -1.43460000      -0.17180000       1.72640000
H       -1.29200000      -1.68620000       0.71490000
H        1.06150000      -0.07840000       1.93820000
H        2.26190000      -2.09970000       1.60430000
H        0.85270000      -2.84850000       0.87980000
H        3.01560000      -1.22690000      -0.53800000
H        2.55040000      -2.89020000      -0.81860000
H        1.29600000      -1.82880000      -2.62120000
H       -0.50170000      -0.27370000      -2.12760000
