23
Properties=species:S:1:pos:R:3 gdb_119419=T pbc="F F F"
C       -0.11350000       1.59310000      -0.08770000
C       -0.12980000       0.06360000      -0.14630000
C        0.89050000      -0.50970000      -1.14210000
C        0.90330000      -2.01190000      -1.19130000
C       -0.10810000      -2.82090000      -1.98600000
C        1.35910000      -2.97130000      -2.28430000
O        1.90280000      -2.63910000      -3.51480000
C        2.03290000      -3.88940000      -1.26140000
C        1.52350000      -2.93570000      -0.12800000
H        0.87060000       1.96750000       0.21590000
H       -0.34290000       2.02920000      -1.06660000
H       -0.84940000       1.97450000       0.62730000
H        0.07190000      -0.34410000       0.85280000
H       -1.13270000      -0.28760000      -0.42000000
H        0.68280000      -0.11880000      -2.14670000
H        1.89410000      -0.14720000      -0.87710000
H       -0.68170000      -3.62200000      -1.52220000
H       -0.65190000      -2.24520000      -2.72960000
H        1.54290000      -3.23750000      -4.17850000
H        1.69750000      -4.93220000      -1.23260000
H        3.12120000      -3.86820000      -1.35380000
H        2.34290000      -2.46550000       0.42230000
H        0.82330000      -3.37270000       0.59130000
