16
Properties=species:S:1:pos:R:3 gdb_46494=T pbc="F F F"
O        0.01800000      -0.06290000       0.39560000
C       -0.00560000       1.12610000       0.13090000
N       -1.18040000       1.80810000      -0.09100000
C       -1.27340000       3.26150000      -0.07210000
C       -0.07100000       3.87510000      -0.76570000
C       -0.21660000       4.65850000      -2.00960000
O       -0.05450000       5.30760000      -0.74990000
C        1.21010000       3.19680000      -0.46340000
C        1.23300000       1.93390000      -0.03010000
H       -2.00760000       1.27830000       0.14280000
H       -2.19740000       3.57150000      -0.56700000
H       -1.30270000       3.65490000       0.95650000
H        0.62460000       4.74900000      -2.69530000
H       -1.20240000       4.74720000      -2.46450000
H        2.11800000       3.77070000      -0.62630000
H        2.15420000       1.40480000       0.18240000
