15
Properties=species:S:1:pos:R:3 gdb_45813=T pbc="F F F"
O        0.03840000      -0.04940000      -0.39970000
C       -0.00410000       1.06460000       0.04800000
N       -1.17490000       1.82090000      -0.02570000
C       -1.60210000       2.95630000       0.66590000
N       -0.94970000       3.94440000       1.11230000
C        0.44660000       4.07740000       0.87000000
C        1.47160000       3.70730000       1.91810000
C        1.41380000       2.94690000       0.62380000
O        1.03550000       1.59350000       0.72460000
H       -1.91320000       1.26490000      -0.43440000
H       -2.68540000       2.95860000       0.79440000
H        0.66390000       4.99310000       0.32370000
H        2.30210000       4.37720000       2.10760000
H        1.09790000       3.17160000       2.78360000
H        2.20160000       3.08100000      -0.11220000
