14
Properties=species:S:1:pos:R:3 gdb_24849=T pbc="F F F"
N       -0.11100000       1.27480000       0.52330000
C        0.03340000       0.10670000       0.03850000
N       -1.12160000      -0.68500000      -0.08950000
C       -1.55330000      -1.52410000      -1.10130000
O       -2.70310000      -1.92120000      -1.12010000
C       -0.61220000      -1.93040000      -2.17290000
C        0.72200000      -1.80990000      -2.20670000
C        1.57940000      -1.23870000      -1.16970000
N        1.29740000      -0.44160000      -0.21320000
H        0.80970000       1.67620000       0.70110000
H       -1.89120000      -0.34240000       0.47400000
H       -1.12770000      -2.43930000      -2.98050000
H        1.25370000      -2.23600000      -3.05380000
H        2.62820000      -1.53950000      -1.23330000
