17
Properties=species:S:1:pos:R:3 gdb_35916=T pbc="F F F"
N       -0.26120000      -1.16310000      -0.42140000
C       -0.13740000      -0.03320000      -0.21340000
C       -0.00130000       1.40480000       0.05260000
C       -0.73500000       1.79640000       1.35800000
O        0.06110000       1.52870000       2.48880000
C        1.16460000       2.41620000       2.53390000
C        2.02090000       2.30670000       1.28760000
C        2.38260000       0.97150000       0.75890000
N        1.42210000       1.81370000       0.03040000
H       -0.49540000       1.92630000      -0.77740000
H       -0.98350000       2.86830000       1.30990000
H       -1.66200000       1.22870000       1.46350000
H        0.80410000       3.45200000       2.64810000
H        1.74340000       2.15890000       3.42600000
H        2.70490000       3.14040000       1.13870000
H        3.32690000       0.81290000       0.24650000
H        1.99640000       0.10630000       1.29160000
