21
Properties=species:S:1:pos:R:3 gdb_95820=T pbc="F F F"
O       -0.19190000       1.52140000      -0.16760000
C       -0.01900000       0.11610000      -0.01460000
C       -1.42510000      -0.49770000       0.03590000
C       -1.47400000      -1.92510000       0.60370000
C       -0.74530000      -3.01950000      -0.19230000
C        0.77550000      -2.83170000      -0.28130000
O        1.31990000      -4.08740000      -0.67510000
C        1.17140000      -1.73600000      -1.24770000
C        0.82650000      -0.45640000      -1.13190000
H        0.68110000       1.92570000      -0.19730000
H        0.47090000      -0.09510000       0.95420000
H       -2.03470000       0.15580000       0.66960000
H       -1.86060000      -0.46660000      -0.96950000
H       -1.07620000      -1.91060000       1.62850000
H       -2.52590000      -2.21720000       0.69790000
H       -0.91850000      -3.98540000       0.29490000
H       -1.15220000      -3.09480000      -1.20730000
H        1.13800000      -2.56990000       0.73030000
H        2.27590000      -3.99090000      -0.73270000
H        1.74500000      -2.06760000      -2.11080000
H        1.11870000       0.25610000      -1.90060000
