15
Properties=species:S:1:pos:R:3 gdb_51993=T pbc="F F F"
N       -0.22350000       1.26020000       0.18090000
C       -0.10650000       0.01200000       0.27060000
O       -1.12320000      -0.76360000      -0.22670000
C       -0.98110000      -2.12950000      -0.12460000
O       -0.03410000      -2.69570000       0.36490000
N       -2.07860000      -2.71790000      -0.66400000
C       -2.22140000      -4.15350000      -0.73780000
C       -3.30860000      -4.68590000       0.18970000
O       -3.95920000      -5.66830000      -0.04150000
H        0.59480000       1.71250000       0.58560000
H        0.70330000      -0.58120000       0.69600000
H       -2.77870000      -2.11340000      -1.06320000
H       -2.42270000      -4.49350000      -1.75840000
H       -1.26620000      -4.58520000      -0.41590000
H       -3.44410000      -4.08540000       1.11810000
