18
Properties=species:S:1:pos:R:3 gdb_71200=T pbc="F F F"
C        0.03030000       1.46420000       0.07920000
C       -0.03410000      -0.04230000      -0.00710000
C        0.21480000      -0.68710000      -1.41430000
C       -1.11960000      -1.41750000      -1.27930000
C       -1.16770000      -2.16970000       0.03550000
N       -0.02110000      -2.72140000       0.70140000
C        0.83190000      -1.90050000       1.15490000
O        0.86600000      -0.55550000       1.00070000
C       -1.42480000      -0.69170000       0.03590000
H        1.05160000       1.81580000      -0.09560000
H       -0.62910000       1.91200000      -0.66930000
H       -0.28710000       1.80410000       1.06980000
H        0.21450000       0.06470000      -2.20720000
H        1.11310000      -1.30430000      -1.50410000
H       -1.80170000      -1.65610000      -2.08590000
H       -2.04690000      -2.79730000       0.13910000
H        1.67260000      -2.23970000       1.75700000
H       -2.32960000      -0.22570000       0.40470000
