15
Properties=species:S:1:pos:R:3 gdb_127316=T pbc="F F F"
C       -0.05200000       1.40990000       0.08000000
N       -0.07390000      -0.03470000       0.00650000
C       -0.01000000      -0.81910000      -1.09500000
C       -0.07390000      -2.13170000      -0.67230000
C       -0.18000000      -2.01550000       0.72430000
O       -0.30210000      -3.06580000       1.58910000
C        0.29370000      -2.96490000       2.81640000
O        0.14100000      -3.80170000       3.64930000
N       -0.18930000      -0.75690000       1.14340000
H        0.79790000       1.74640000       0.67970000
H        0.03870000       1.81060000      -0.93080000
H       -0.97430000       1.78060000       0.53510000
H        0.07420000      -0.39270000      -2.08220000
H       -0.04650000      -3.02920000      -1.26560000
H        0.90480000      -2.05470000       2.90980000
