19
Properties=species:S:1:pos:R:3 gdb_124540=T pbc="F F F"
C       -0.08860000       1.59030000       0.24770000
C       -0.06510000       0.06980000       0.01170000
C        0.90410000      -0.62670000       0.98300000
C       -1.44580000      -0.52250000       0.08970000
N       -1.97880000      -1.11410000      -0.97340000
N       -3.20800000      -1.52550000      -0.55470000
C       -3.44580000      -1.20430000       0.73390000
O       -4.63100000      -1.55340000       1.28110000
C       -2.32880000      -0.54800000       1.20470000
H        0.91500000       2.01470000       0.13730000
H       -0.75170000       2.08960000      -0.46460000
H       -0.44110000       1.82830000       1.25760000
H        0.28180000      -0.11420000      -1.01150000
H        0.59320000      -0.48170000       2.02380000
H        0.94660000      -1.70310000       0.79330000
H        1.91570000      -0.22010000       0.87860000
H       -3.82410000      -2.01020000      -1.18400000
H       -4.64570000      -1.25620000       2.19600000
H       -2.17550000      -0.15070000       2.19500000
