19
Properties=species:S:1:pos:R:3 gdb_115932=T pbc="F F F"
C        0.50750000       1.15390000      -0.30690000
O        0.55140000      -0.23470000      -0.02570000
C        0.51400000      -0.54130000       1.34490000
C        0.32770000      -2.07770000       1.42400000
O        1.13570000      -2.71220000       2.39350000
C        2.48400000      -2.33480000       2.36020000
C        3.17150000      -1.85810000       1.08970000
C        2.76340000      -0.88200000       2.17500000
O        1.64270000      -0.04460000       2.03380000
H        1.36990000       1.67730000       0.12010000
H        0.51850000       1.25860000      -1.39370000
H       -0.41300000       1.61010000       0.08770000
H       -0.32770000      -0.01230000       1.81420000
H       -0.70350000      -2.30670000       1.70090000
H        0.50880000      -2.49090000       0.42330000
H        3.04610000      -2.92600000       3.07370000
H        4.22780000      -2.08390000       0.98800000
H        2.62740000      -1.82650000       0.15470000
H        3.52100000      -0.36830000       2.75530000
