19
Properties=species:S:1:pos:R:3 gdb_87488=T pbc="F F F"
C       -0.10090000       1.53710000      -0.01760000
C        0.00550000       0.02790000      -0.00430000
C        1.34050000      -0.65680000      -0.28550000
C        0.74270000      -0.67950000       1.07780000
C        1.20540000      -0.24560000       2.47500000
O       -0.09110000      -0.71830000       3.01560000
C        0.33290000      -1.77930000       2.06640000
C        1.73010000      -1.70240000       2.72670000
O        2.80710000      -2.23250000       2.01390000
H        0.81330000       1.99920000       0.37030000
H       -0.25690000       1.91520000      -1.03400000
H       -0.93530000       1.88040000       0.60330000
H       -0.87050000      -0.48960000      -0.38990000
H        1.34650000      -1.57420000      -0.86470000
H        2.20730000      -0.02390000      -0.45160000
H        1.58060000       0.71460000       2.83080000
H       -0.32820000      -2.63590000       1.93260000
H        1.71980000      -1.97750000       3.78710000
H        3.60790000      -2.09530000       2.52890000
