18
Properties=species:S:1:pos:R:3 gdb_63110=T pbc="F F F"
C        0.00130000       1.54320000       0.04070000
C        0.03540000       0.02880000       0.03060000
C       -1.19650000      -0.63880000      -0.55530000
C        1.31200000      -0.71820000      -0.19140000
O        2.45390000      -0.02110000       0.28590000
C        1.96820000      -0.09020000       1.65100000
C        0.66360000      -0.75650000       1.20210000
C       -0.00250000      -1.79320000       1.91000000
N       -0.54830000      -2.62690000       2.50090000
H        0.97270000       1.96980000       0.29590000
H       -0.26840000       1.91210000      -0.95460000
H       -0.74700000       1.91480000       0.74830000
H       -1.36420000      -0.28230000      -1.57660000
H       -1.10100000      -1.72800000      -0.58540000
H       -2.08640000      -0.40380000       0.03730000
H        1.46260000      -1.50340000      -0.92470000
H        2.59740000      -0.75710000       2.24750000
H        1.89780000       0.89290000       2.12690000
