15
Properties=species:S:1:pos:R:3 gdb_125033=T pbc="F F F"
C       -0.09060000       1.52850000       0.08450000
C       -0.04770000       0.04210000      -0.03430000
C        0.04120000      -0.74940000      -1.15100000
N        0.06090000      -0.46070000      -2.51050000
N        0.03140000      -2.04020000      -0.66750000
C       -0.00020000      -3.23330000      -1.40840000
O        0.02470000      -4.33070000      -0.93410000
N       -0.03960000      -2.02150000       0.71430000
N       -0.09830000      -0.78850000       1.06390000
H        0.45930000       2.01120000      -0.73110000
H       -1.11580000       1.91660000       0.06920000
H        0.36430000       1.83820000       1.02840000
H       -0.00400000       0.53320000      -2.68630000
H        0.85400000      -0.84410000      -3.01120000
H       -0.06430000      -3.02080000      -2.49020000
