17
Properties=species:S:1:pos:R:3 gdb_88049=T pbc="F F F"
O       -0.02990000       1.37550000      -0.05120000
C        0.01930000      -0.01210000       0.10220000
C       -0.55560000      -0.64700000       1.35090000
C       -1.29570000      -0.70400000       0.04590000
C       -2.62490000      -0.08440000      -0.35370000
O       -2.91350000      -1.21410000      -1.21590000
C       -1.70850000      -1.91300000      -0.80730000
C       -0.84200000      -2.29710000      -1.90940000
C       -0.10530000      -2.61870000      -2.80330000
H        0.65750000       1.76310000       0.50040000
H        0.86400000      -0.50880000      -0.37540000
H       -0.09480000      -1.55470000       1.72900000
H       -0.95130000       0.02010000       2.11090000
H       -3.36700000       0.01230000       0.44880000
H       -2.55940000       0.85570000      -0.91080000
H       -1.96450000      -2.80000000      -0.21000000
H        0.53400000      -2.90320000      -3.60250000
