21
Properties=species:S:1:pos:R:3 gdb_64224=T pbc="F F F"
C       -0.14350000       1.57150000      -0.15490000
C       -0.02520000       0.04530000      -0.05130000
C       -1.37970000      -0.59730000       0.22200000
C        0.82400000      -0.55570000      -1.21350000
C        2.00800000      -0.60070000      -0.22080000
N        1.04360000      -0.44120000       0.88000000
C        1.41000000       0.31610000       2.05550000
C        2.35410000      -0.43660000       2.89300000
N        3.11250000      -1.01730000       3.54260000
H        0.82280000       2.04460000      -0.35750000
H       -0.82010000       1.83800000      -0.97320000
H       -0.55210000       2.00870000       0.76280000
H       -2.08800000      -0.36820000      -0.58200000
H       -1.27850000      -1.68230000       0.30400000
H       -1.81160000      -0.22490000       1.15850000
H        0.48240000      -1.54770000      -1.51430000
H        0.94500000       0.07150000      -2.09760000
H        2.60520000      -1.51580000      -0.17230000
H        2.69140000       0.25630000      -0.33590000
H        1.87230000       1.29730000       1.83680000
H        0.51120000       0.51330000       2.65180000
