18
Properties=species:S:1:pos:R:3 gdb_13234=T pbc="F F F"
C       -0.45350000      -1.10080000      -0.25860000
C       -0.20560000       0.05220000      -0.03320000
C        0.06450000       1.45420000       0.25740000
O        1.31400000       1.83130000      -0.29140000
C        1.62200000       3.18350000      -0.06590000
C        2.10300000       3.63180000       1.34550000
C        3.18070000       4.49560000       0.63210000
C        2.97810000       3.62940000      -0.64230000
H       -0.66640000      -2.12100000      -0.46270000
H       -0.74260000       2.08130000      -0.15940000
H        0.05440000       1.61220000       1.34840000
H        0.79920000       3.82560000      -0.42010000
H        1.39260000       4.13280000       2.00710000
H        2.55290000       2.78430000       1.87150000
H        2.84500000       5.52560000       0.48450000
H        4.17910000       4.51660000       1.07210000
H        3.66340000       2.77770000      -0.66300000
H        2.98410000       4.11870000      -1.61820000
