19
Properties=species:S:1:pos:R:3 gdb_106747=T pbc="F F F"
C        0.21810000       1.49760000       0.23300000
C       -0.14950000       0.03510000      -0.05620000
C        0.52240000      -0.50190000      -1.28980000
C        1.98920000      -0.97850000      -1.29340000
C        0.97330000      -1.94000000      -1.77010000
O        0.71520000      -3.17880000      -1.23100000
C        0.57000000      -1.63180000      -3.21070000
C        0.10710000      -0.24020000      -2.70020000
O       -0.53890000       0.63520000      -3.21050000
H        1.29440000       1.60930000       0.40190000
H       -0.05840000       2.13260000      -0.61330000
H       -0.30390000       1.86450000       1.12210000
H        0.11210000      -0.59770000       0.80210000
H       -1.23560000      -0.04810000      -0.18130000
H        2.73330000      -0.54540000      -1.95890000
H        2.35630000      -1.14880000      -0.28240000
H        1.31420000      -3.33570000      -0.49480000
H        1.34800000      -1.68010000      -3.97910000
H       -0.29900000      -2.21280000      -3.53340000
