22
Properties=species:S:1:pos:R:3 gdb_98275=T pbc="F F F"
C        1.54800000       1.06080000       0.38950000
O        1.24700000      -0.31600000       0.12750000
C        0.41630000      -0.53610000      -0.90730000
O       -0.08280000       0.34790000      -1.56140000
C        0.21850000      -2.03270000      -1.15280000
C       -1.26010000      -2.34040000      -1.43830000
N        1.18160000      -2.43300000      -2.18940000
C        1.53380000      -3.84130000      -2.13500000
C        0.85610000      -2.00170000      -3.54290000
H        2.04540000       1.51570000      -0.47090000
H        0.63450000       1.62160000       0.60260000
H        2.20900000       1.06060000       1.25620000
H        0.52800000      -2.54550000      -0.23840000
H       -1.39390000      -3.39580000      -1.69180000
H       -1.87130000      -2.12610000      -0.55580000
H       -1.63450000      -1.72610000      -2.25980000
H        0.70640000      -4.52250000      -2.40980000
H        2.35830000      -4.03290000      -2.82990000
H        1.87330000      -4.10550000      -1.12870000
H        0.58270000      -0.94500000      -3.54410000
H        1.73890000      -2.13080000      -4.17830000
H        0.02930000      -2.57230000      -4.00280000
