23
Properties=species:S:1:pos:R:3 gdb_117818=T pbc="F F F"
C       -2.23350000       1.60880000       1.29810000
C       -2.26600000       0.07690000       1.28980000
C       -1.38420000      -0.51560000       0.18340000
C       -1.32560000      -2.06650000       0.14180000
O       -0.85370000      -2.59490000       1.38100000
C       -2.66000000      -2.69760000      -0.29570000
C       -2.65070000      -4.22970000      -0.29560000
C       -0.21640000      -2.41040000      -0.85290000
O       -0.35380000      -2.40790000      -2.04820000
H       -2.86240000       2.01370000       2.09690000
H       -1.21530000       1.98200000       1.45190000
H       -2.59560000       2.01640000       0.34820000
H       -1.92310000      -0.29010000       2.26600000
H       -3.30270000      -0.25990000       1.17260000
H       -1.72050000      -0.16240000      -0.79850000
H       -0.36110000      -0.13980000       0.31850000
H       -1.52410000      -2.43230000       2.05180000
H       -3.45620000      -2.33380000       0.36500000
H       -2.88570000      -2.32510000      -1.30000000
H       -3.64010000      -4.62070000      -0.54940000
H       -1.94070000      -4.62020000      -1.03070000
H       -2.36790000      -4.62200000       0.68490000
H        0.75880000      -2.63080000      -0.36490000
