18
Properties=species:S:1:pos:R:3 gdb_23170=T pbc="F F F"
C        0.20010000       0.95770000      -0.48580000
O       -0.13310000      -0.27060000       0.13570000
C        0.68690000      -0.59810000       1.23990000
C        0.29890000      -2.05210000       1.68750000
O       -0.96680000      -2.49680000       1.31210000
C        1.56220000      -2.60510000       0.93870000
C        2.03660000      -1.17140000       0.83770000
N        3.12930000      -0.56460000       0.62760000
O        4.16120000      -1.46610000       0.32390000
H        1.23330000       0.95320000      -0.85460000
H       -0.48680000       1.08710000      -1.32500000
H        0.07980000       1.79840000       0.21290000
H        0.67770000       0.20560000       1.98790000
H        0.39890000      -2.17410000       2.76950000
H       -1.20430000      -1.99240000       0.52210000
H        2.21250000      -3.30270000       1.47070000
H        1.30220000      -3.03410000      -0.03480000
H        4.92150000      -0.88250000       0.22380000
