13
Properties=species:S:1:pos:R:3 gdb_131588=T pbc="F F F"
O        0.02770000       1.37630000       0.00920000
C       -0.01860000      -0.02410000       0.00210000
C       -1.47210000      -0.47300000       0.01130000
O       -2.41130000       0.28810000       0.02320000
C       -1.69130000      -1.93530000       0.00580000
C       -2.87070000      -2.62550000       0.01190000
O       -2.62730000      -3.91770000       0.00410000
N       -1.16640000      -4.04740000      -0.00960000
N       -0.69640000      -2.89300000      -0.00700000
H        0.95160000       1.64220000       0.00280000
H        0.46170000      -0.47130000      -0.88480000
H        0.47580000      -0.48070000       0.87640000
H       -3.89670000      -2.29490000       0.02200000
