17
Properties=species:S:1:pos:R:3 gdb_30148=T pbc="F F F"
O       -0.15990000       0.96210000       1.50850000
C        0.03910000       0.05730000       0.46820000
C       -0.57790000      -1.31260000       0.54460000
C       -1.10750000      -0.30010000      -0.45720000
C       -2.42630000       0.34730000      -0.24930000
C       -2.73460000       1.65960000      -0.47610000
O       -4.04170000       1.90770000      -0.19880000
C       -4.58340000       0.73470000       0.22180000
C       -3.65080000      -0.25010000       0.21670000
H       -0.98520000       1.43380000       1.33630000
H        1.02780000       0.14630000       0.02450000
H       -0.02430000      -2.16680000       0.17050000
H       -1.18860000      -1.50700000       1.41950000
H       -0.83650000      -0.47050000      -1.49570000
H       -2.16680000       2.49570000      -0.85180000
H       -5.62740000       0.77100000       0.48580000
H       -3.79520000      -1.28060000       0.50070000
