19
Properties=species:S:1:pos:R:3 gdb_67963=T pbc="F F F"
C       -0.23520000       1.66020000      -0.05450000
C       -0.00470000       0.16180000       0.03490000
C       -1.27740000      -0.70480000      -0.02900000
C       -0.93860000      -1.91230000       0.86460000
O       -0.08890000      -1.39340000       1.88700000
C        0.75090000      -0.45000000       1.27650000
C        1.76400000      -1.00340000       0.25050000
N        2.74970000      -1.78590000       0.37010000
N        1.12580000      -0.32810000      -0.78390000
H        0.70720000       2.20390000       0.05580000
H       -0.67170000       1.93630000      -1.02140000
H       -0.92510000       1.99240000       0.72780000
H       -2.11950000      -0.14750000       0.39330000
H       -1.54160000      -0.99250000      -1.05090000
H       -1.80790000      -2.36080000       1.34990000
H       -0.41710000      -2.69420000       0.29430000
H        1.15050000       0.22220000       2.03650000
H        3.17810000      -1.99650000      -0.53420000
H        1.11950000      -0.56640000      -1.76630000
