20
Properties=species:S:1:pos:R:3 gdb_60556=T pbc="F F F"
O        0.21980000       1.78530000       0.56990000
C        0.23090000       0.44650000       0.08830000
C        1.10810000       0.31850000      -1.13640000
C        0.81410000      -0.68150000      -2.18230000
N        0.59430000       0.75150000      -2.45650000
C        0.69680000      -0.45990000       1.22120000
O        0.62170000      -1.82300000       0.89080000
C        1.87220000      -0.07190000       2.06390000
C        0.47570000      -0.06890000       2.65740000
H        0.23660000       2.37210000      -0.19290000
H       -0.79540000       0.13690000      -0.19250000
H        2.14480000       0.60050000      -0.96510000
H        1.62800000      -1.13690000      -2.73780000
H       -0.05060000      -1.32350000      -2.04050000
H       -0.40310000       0.95020000      -2.38690000
H       -0.29810000      -2.09690000       0.97900000
H        2.54290000      -0.87220000       2.35310000
H        2.33570000       0.88880000       1.87470000
H        0.01450000       0.88880000       2.86330000
H        0.22540000      -0.87250000       3.34150000
