18
Properties=species:S:1:pos:R:3 gdb_129686=T pbc="F F F"
N       -0.13250000       1.35110000       0.39220000
C       -0.05090000      -0.02590000       0.12140000
C       -1.09560000      -0.88290000      -0.19310000
N       -0.50260000      -2.08800000      -0.45910000
N        0.82820000      -2.07660000      -0.32640000
C        1.11330000      -0.82170000       0.02290000
C       -2.54960000      -0.65040000      -0.29830000
C       -3.52790000      -1.59500000       0.36720000
C       -3.33940000      -0.20900000       0.92060000
H        0.55370000       1.65300000       1.07240000
H       -1.05450000       1.62180000       0.71140000
H       -0.96620000      -2.93960000      -0.72590000
H        2.13910000      -0.52850000       0.19510000
H       -2.89010000      -0.22290000      -1.23960000
H       -4.45030000      -1.82030000      -0.15570000
H       -3.12240000      -2.42110000       0.94070000
H       -2.80370000      -0.11540000       1.85850000
H       -4.13320000       0.51520000       0.77660000
