15
Properties=species:S:1:pos:R:3 gdb_17030=T pbc="F F F"
O        0.08250000       1.50030000      -0.03560000
C        0.06640000       0.11710000      -0.03250000
C        0.01460000      -0.63500000       1.33600000
N       -1.39140000      -0.07180000       1.46580000
C       -1.30730000      -0.62250000       0.05140000
C       -0.55450000      -1.88510000       0.58690000
C        0.27860000      -2.69490000      -0.27820000
C        0.96400000      -3.38030000      -0.99050000
H       -0.56670000       1.76200000       0.63490000
H        0.77850000      -0.25140000      -0.76880000
H        0.72450000      -0.61660000       2.16390000
H       -1.96700000      -0.68270000       2.05220000
H       -2.15490000      -0.58940000      -0.63430000
H       -1.18580000      -2.50620000       1.23050000
H        1.57010000      -3.98250000      -1.62140000
