17
Properties=species:S:1:pos:R:3 gdb_79692=T pbc="F F F"
C       -0.30690000       1.64430000       0.00490000
C        0.04480000       0.15930000       0.06470000
C        1.05190000      -0.55180000      -0.90870000
C        2.43850000      -0.03520000      -0.49790000
O        2.48260000       1.20250000       0.21870000
C        2.33090000      -0.00140000       0.97700000
C        0.89760000      -0.50330000       1.20530000
C        0.97170000      -1.68690000       0.17470000
O        0.91010000      -2.87320000       0.19740000
H        0.56230000       2.29280000       0.05340000
H       -0.85160000       1.85040000      -0.92320000
H       -0.97970000       1.89080000       0.83390000
H       -0.89590000      -0.40120000       0.00890000
H        0.83330000      -0.72170000      -1.96010000
H        3.33300000      -0.31160000      -1.04440000
H        3.13560000      -0.24960000       1.65950000
H        0.52820000      -0.62580000       2.22050000
