16
Properties=species:S:1:pos:R:3 gdb_96816=T pbc="F F F"
C        0.01170000       1.43500000       0.08860000
N        0.27340000       0.00900000       0.10800000
C        0.53020000      -0.62940000      -0.95120000
O        0.57160000       0.01860000      -2.18640000
C        0.84090000      -0.59010000      -3.38260000
O        0.84670000       0.07830000      -4.37430000
C        1.11760000      -2.08290000      -3.38400000
C        1.06560000      -2.74610000      -2.04610000
C        0.79380000      -2.06320000      -0.93520000
H        0.73430000       1.92950000       0.74790000
H        0.05530000       1.89740000      -0.90160000
H       -0.97830000       1.61220000       0.52430000
H        0.40200000      -2.53640000      -4.08220000
H        2.09670000      -2.22240000      -3.86070000
H        1.25850000      -3.81360000      -2.00860000
H        0.75070000      -2.52200000       0.04420000
