18
Properties=species:S:1:pos:R:3 gdb_95112=T pbc="F F F"
O       -0.12840000       1.40580000       0.68070000
C       -0.00190000       0.16650000       0.02200000
C        0.89640000      -0.84940000       0.77480000
C       -0.03570000      -1.75330000       1.62290000
C       -1.39190000      -1.66340000       0.93320000
N       -2.09990000      -0.40170000       1.20600000
C       -1.36730000      -0.56200000      -0.08290000
C       -2.09300000      -0.61230000      -1.31290000
C       -2.69320000      -0.64050000      -2.35550000
H       -0.81450000       1.26980000       1.35150000
H        0.39410000       0.38020000      -0.97390000
H        1.41540000      -1.46950000       0.03530000
H        1.65470000      -0.32550000       1.36090000
H        0.32280000      -2.78560000       1.65600000
H       -0.12230000      -1.40230000       2.65570000
H       -1.98600000      -2.55500000       0.76100000
H       -3.09740000      -0.50730000       1.03690000
H       -3.22180000      -0.66630000      -3.27610000
