19
Properties=species:S:1:pos:R:3 gdb_121541=T pbc="F F F"
C        0.42390000       1.42540000       0.09920000
C       -0.02840000      -0.00570000      -0.13150000
O        0.74850000      -0.55650000      -1.17870000
C        0.39600000      -1.89490000      -1.46400000
C        1.22590000      -2.41820000      -2.53990000
C        1.90800000      -2.87280000      -3.42180000
C        2.69820000      -3.41350000      -4.49260000
C        4.08540000      -2.96570000      -4.73090000
O        3.82790000      -4.23280000      -4.14290000
H        1.48190000       1.45300000       0.37430000
H        0.29000000       2.02060000      -0.80830000
H       -0.15770000       1.88300000       0.90500000
H        0.09300000      -0.60500000       0.78710000
H       -1.09940000      -0.03740000      -0.39590000
H        0.51680000      -2.52740000      -0.56690000
H       -0.66810000      -1.96230000      -1.75140000
H        2.13710000      -3.78830000      -5.34800000
H        4.47880000      -2.98420000      -5.74660000
H        4.51560000      -2.21720000      -4.06860000
