16
Properties=species:S:1:pos:R:3 gdb_73389=T pbc="F F F"
O       -0.02970000       1.30920000       0.02060000
C       -0.00440000      -0.07100000      -0.02480000
C        1.01050000      -0.80010000      -0.91400000
C        0.25730000      -2.11390000      -1.26970000
N       -0.85130000      -2.19590000      -0.27830000
C       -1.28740000      -0.79860000      -0.02160000
C       -0.51060000      -0.80000000       1.29150000
C       -0.27000000      -2.24820000       1.06510000
O        0.22690000      -3.16880000       1.64260000
H        0.80050000       1.62070000       0.39790000
H        1.21640000      -0.18650000      -1.79570000
H        1.95840000      -0.98770000      -0.40010000
H       -0.16860000      -2.06910000      -2.27510000
H        0.87240000      -3.01160000      -1.18970000
H       -2.28190000      -0.43760000      -0.24200000
H       -0.66010000      -0.22720000       2.19780000
