20
Properties=species:S:1:pos:R:3 gdb_80287=T pbc="F F F"
C       -0.34320000       1.43700000      -0.25040000
C       -0.00750000      -0.03320000      -0.12820000
C        1.39070000      -0.61080000      -0.33920000
C        2.58190000       0.31990000      -0.23100000
C        2.48360000       0.89400000       1.17390000
N        3.22700000       1.79410000       1.65330000
O        1.45150000       0.29840000       1.85220000
C        0.75450000      -0.63240000       1.02760000
C        0.30860000      -1.84540000       1.79110000
H       -0.47680000       1.71680000      -1.30090000
H       -1.27680000       1.66260000       0.27550000
H        0.43080000       2.08290000       0.16960000
H       -0.79050000      -0.69010000      -0.50160000
H        1.49180000      -1.51960000      -0.92100000
H        3.52390000      -0.22740000      -0.33560000
H        2.59990000       1.13080000      -0.96430000
H        2.95320000       2.01120000       2.61310000
H       -0.39210000      -1.57140000       2.58670000
H       -0.19480000      -2.54880000       1.12230000
H        1.16290000      -2.35380000       2.24990000
