21
Properties=species:S:1:pos:R:3 gdb_88675=T pbc="F F F"
C       -0.23450000       1.53440000       0.01060000
C       -0.09060000       0.03000000       0.09640000
C       -1.20720000      -0.75170000      -0.56510000
O        1.22710000      -0.48410000      -0.17180000
C        0.70120000      -0.62430000       1.15720000
C        1.41990000       0.09570000       2.24940000
C        0.89170000       0.01460000       3.67400000
C        2.17180000      -0.68200000       3.29620000
O        2.17860000      -2.07350000       3.16470000
H        0.60910000       2.05310000       0.46780000
H       -0.29310000       1.84580000      -1.03830000
H       -1.15460000       1.86300000       0.50640000
H       -1.27720000      -0.49370000      -1.62780000
H       -1.02690000      -1.82660000      -0.48700000
H       -2.17330000      -0.52380000      -0.10140000
H        0.43020000      -1.64790000       1.41630000
H        1.87320000       1.03390000       1.95130000
H        0.92690000       0.90160000       4.29690000
H        0.02850000      -0.62350000       3.83630000
H        3.10900000      -0.25300000       3.64990000
H        2.11550000      -2.45560000       4.04600000
