16
Properties=species:S:1:pos:R:3 gdb_15147=T pbc="F F F"
O        0.25470000       0.13710000      -0.36800000
C        0.37310000       1.32180000      -0.45000000
O        0.74340000       2.09130000       0.59130000
C        0.89550000       3.49800000       0.37110000
C        2.37220000       3.88650000       0.41710000
C        2.55070000       5.37870000       0.28010000
C        3.64450000       5.96950000      -0.49910000
O        2.31640000       5.92350000      -1.02370000
H        0.18890000       1.90880000      -1.37180000
H        0.45700000       3.78390000      -0.59270000
H        0.33190000       4.00100000       1.16320000
H        2.80430000       3.54570000       1.36510000
H        2.90660000       3.37670000      -0.39170000
H        2.12530000       5.97900000       1.08700000
H        4.01410000       6.96210000      -0.24720000
H        4.36440000       5.31640000      -0.99060000
