25
Properties=species:S:1:pos:R:3 gdb_101000=T pbc="F F F"
C        0.04100000       1.60340000       0.01450000
C        0.01430000       0.07250000      -0.00810000
C        0.63710000      -0.54770000       1.25110000
O       -0.09730000      -0.17400000       2.41880000
C        0.84500000      -2.07740000       1.17970000
C       -0.45120000      -2.83850000       0.90820000
C        2.06320000      -2.45060000       0.27040000
C        2.95450000      -2.57730000       1.53470000
C        1.67350000      -2.56880000       2.41080000
H        1.07030000       1.97890000       0.01030000
H       -0.47140000       2.02420000      -0.85600000
H       -0.44520000       1.98110000       0.91800000
H       -1.02380000      -0.27480000      -0.09950000
H        0.53840000      -0.30040000      -0.89620000
H        1.62250000      -0.08790000       1.40590000
H       -1.00170000      -0.48670000       2.30870000
H       -0.87230000      -2.59860000      -0.07390000
H       -0.27280000      -3.91820000       0.93480000
H       -1.21600000      -2.62410000       1.66550000
H        1.91350000      -3.40910000      -0.23530000
H        2.36530000      -1.71510000      -0.48090000
H        3.59110000      -3.46250000       1.59910000
H        3.58340000      -1.69800000       1.69660000
H        1.65770000      -1.91310000       3.28340000
H        1.37950000      -3.57410000       2.72710000
