15
Properties=species:S:1:pos:R:3 gdb_14118=T pbc="F F F"
N        0.43290000       0.32140000      -1.03600000
C       -0.03090000       0.19210000       0.23660000
O        0.55220000       0.58120000       1.23120000
C       -1.33900000      -0.52380000       0.33660000
C       -2.29580000      -0.56640000       1.53160000
C       -2.70950000      -2.01720000       1.09640000
C       -1.72040000      -1.89930000      -0.06950000
O       -2.10540000      -0.76880000      -0.85660000
H        1.27840000       0.84620000      -1.18660000
H       -0.17850000       0.11740000      -1.80870000
H       -1.75770000      -0.54380000       2.47950000
H       -3.07550000       0.19770000       1.52650000
H       -2.42020000      -2.77430000       1.82790000
H       -3.74930000      -2.17070000       0.80020000
H       -1.13440000      -2.66640000      -0.56310000
