22
Properties=species:S:1:pos:R:3 gdb_102168=T pbc="F F F"
C       -0.18650000       1.33970000       0.33890000
C       -0.12060000      -0.15330000      -0.00220000
C        0.53400000      -0.49400000      -1.35540000
C        0.79460000      -2.02270000      -1.41800000
C        1.57070000      -2.44030000      -2.58410000
N        2.19450000      -2.75510000      -3.50510000
C       -0.22810000      -0.00480000      -2.61610000
C       -1.70330000      -0.38970000      -2.66910000
O       -0.18660000       1.41520000      -2.73560000
H        0.81680000       1.78080000       0.35380000
H       -0.77730000       1.89680000      -0.38910000
H       -0.62390000       1.48300000       1.33200000
H        0.44870000      -0.66590000       0.78430000
H       -1.12740000      -0.58770000       0.03380000
H        1.52020000      -0.00750000      -1.38620000
H        1.33980000      -2.33610000      -0.52090000
H       -0.15240000      -2.57480000      -1.41240000
H        0.27230000      -0.45490000      -3.48740000
H       -2.26770000       0.08930000      -1.86450000
H       -2.12870000      -0.05830000      -3.61940000
H       -1.84060000      -1.47240000      -2.59670000
H        0.73330000       1.68300000      -2.82920000
