19
Properties=species:S:1:pos:R:3 gdb_120331=T pbc="F F F"
C        0.46550000       1.38840000      -0.01540000
O        0.60360000      -0.00930000      -0.08900000
C       -0.11690000      -0.56910000      -1.16910000
C        0.10260000      -2.05660000      -1.15170000
C       -0.17080000      -2.93540000      -2.35530000
O       -0.28910000      -2.28010000      -3.60170000
C        1.04220000      -2.12110000      -4.06200000
O        1.85500000      -1.94790000      -2.91530000
C        1.24140000      -2.71910000      -1.90500000
H        0.84330000       1.88610000      -0.92290000
H       -0.58500000       1.69060000       0.12630000
H        1.04900000       1.73070000       0.84280000
H       -1.19290000      -0.34590000      -1.06730000
H        0.21730000      -0.14040000      -2.12330000
H       -0.12920000      -2.52360000      -0.19720000
H       -0.71810000      -3.86830000      -2.27420000
H        1.36080000      -3.01270000      -4.62890000
H        1.10270000      -1.22470000      -4.68490000
H        1.87590000      -3.47060000      -1.44850000
