17
Properties=species:S:1:pos:R:3 gdb_11417=T pbc="F F F"
C        0.18940000       1.48960000      -0.06760000
C        0.17310000      -0.03820000       0.01300000
C        0.59520000      -0.57000000       1.38120000
C        0.73480000      -2.09920000       1.45010000
O        2.13590000      -2.31040000       1.25960000
C        2.80100000      -1.14540000       1.51550000
N        4.04610000      -0.98290000       1.57210000
O        1.92520000      -0.13230000       1.70990000
H        1.18740000       1.87680000       0.15160000
H       -0.09990000       1.83090000      -1.06540000
H       -0.50860000       1.93090000       0.65260000
H       -0.83460000      -0.42030000      -0.19610000
H        0.83690000      -0.46740000      -0.74830000
H       -0.06760000      -0.18370000       2.16150000
H        0.43430000      -2.50490000       2.42260000
H        0.19110000      -2.61790000       0.65730000
H        4.51910000      -1.87340000       1.43830000
