16
Properties=species:S:1:pos:R:3 gdb_9176=T pbc="F F F"
C        0.14690000       1.36760000       0.07190000
N       -0.08210000      -0.06200000       0.04170000
C       -1.32310000      -0.59750000       0.02930000
O       -2.37250000       0.00080000       0.04110000
O       -1.20150000      -1.97460000       0.00010000
C       -2.36160000      -2.70240000      -0.01620000
N       -2.28430000      -3.95400000      -0.04270000
C       -3.53400000      -4.68940000      -0.05940000
H        0.70410000       1.69950000      -0.81090000
H       -0.82690000       1.85800000       0.08050000
H        0.70140000       1.66240000       0.96930000
H        0.69410000      -0.70270000       0.02920000
H       -3.26280000      -2.08520000      -0.00380000
H       -4.43130000      -4.05150000      -0.04660000
H       -3.56990000      -5.32210000      -0.95310000
H       -3.57150000      -5.35950000       0.80660000
