19
Properties=species:S:1:pos:R:3 gdb_40702=T pbc="F F F"
C       -0.39090000       1.34300000      -0.10460000
N        1.03450000       1.03340000       0.06910000
C        0.05920000      -0.07070000      -0.00540000
C       -0.10270000      -0.83010000       1.27010000
O       -1.25510000      -1.68450000       1.40210000
C        0.04150000      -2.29130000       1.38380000
C        0.33410000      -3.18510000       0.21410000
C       -0.56120000      -4.33500000      -0.06680000
N       -0.54900000      -3.16120000      -0.95940000
H       -0.86020000       1.82150000       0.75070000
H       -0.74300000       1.69460000      -1.07060000
H        1.52660000       1.11950000      -0.81560000
H        0.02950000      -0.66280000      -0.91500000
H        0.10640000      -0.23120000       2.15720000
H        0.36440000      -2.68510000       2.34980000
H        1.39270000      -3.28280000      -0.02010000
H       -0.15750000      -5.24770000      -0.49520000
H       -1.42210000      -4.47170000       0.58240000
H       -1.35380000      -2.58290000      -0.71950000
