21
Properties=species:S:1:pos:R:3 gdb_115768=T pbc="F F F"
C        0.15050000       1.69250000       0.03970000
C       -0.14220000       0.19140000      -0.06550000
C        0.58730000      -0.45870000      -1.23720000
C        2.10670000      -0.69740000      -1.07170000
O        1.94610000      -2.12730000      -1.17830000
C        0.52570000      -2.00330000      -1.41840000
C       -0.29660000      -2.85640000      -0.45150000
C        0.00540000      -4.33050000      -0.62970000
O       -0.82590000      -5.17340000      -0.85420000
H        1.22080000       1.88210000       0.17690000
H       -0.16570000       2.22090000      -0.86630000
H       -0.37560000       2.13900000       0.88850000
H        0.14450000      -0.30060000       0.87200000
H       -1.22280000       0.03780000      -0.17760000
H        0.33380000       0.07160000      -2.15980000
H        2.74440000      -0.29800000      -1.86940000
H        2.53000000      -0.40710000      -0.10120000
H        0.28480000      -2.29770000      -2.44980000
H       -0.03640000      -2.58350000       0.57900000
H       -1.36870000      -2.69780000      -0.60250000
H        1.08190000      -4.58980000      -0.53910000
