18
Properties=species:S:1:pos:R:3 gdb_71501=T pbc="F F F"
C        0.00780000       1.51140000      -0.02840000
C        0.01800000       0.00840000      -0.03500000
C        0.58180000      -0.96180000      -1.10400000
C        0.01200000      -1.89700000      -0.01540000
C        0.57120000      -0.94400000       1.06940000
O       -0.30960000      -0.92440000       2.20280000
C       -1.55340000      -0.92880000       1.60260000
N       -2.67230000      -0.91120000       2.18220000
C       -1.23270000      -0.95050000       0.14040000
H        1.02560000       1.90890000      -0.10620000
H       -0.57230000       1.90590000      -0.86910000
H       -0.43580000       1.89340000       0.89700000
H        0.06590000      -0.97100000      -2.06710000
H        1.66760000      -0.96480000      -1.24260000
H       -0.00150000      -2.98630000       0.00900000
H        1.61210000      -0.94510000       1.38800000
H       -2.55070000      -0.89480000       3.19680000
H       -2.04780000      -0.95620000      -0.57880000
