21
Properties=species:S:1:pos:R:3 gdb_55794=T pbc="F F F"
C       -0.03760000       1.46540000       0.10130000
C       -0.23970000      -0.04080000       0.11200000
O       -0.60640000      -0.62690000       1.10480000
C        0.04690000      -0.76830000      -1.19910000
C       -0.04490000      -2.28050000      -1.07370000
C       -1.41790000      -3.02500000      -1.02640000
C       -1.55650000      -2.78690000      -2.55980000
C       -0.07480000      -3.20820000      -2.33180000
C       -0.62760000      -4.31650000      -1.38830000
H        1.01360000       1.70330000      -0.09810000
H       -0.62420000       1.92950000      -0.69930000
H       -0.32890000       1.88560000       1.06460000
H       -0.63450000      -0.35960000      -1.95580000
H        1.05070000      -0.47290000      -1.53760000
H        0.64870000      -2.61740000      -0.29650000
H       -2.18930000      -2.91580000      -0.26450000
H       -2.18130000      -3.50070000      -3.10380000
H       -1.75290000      -1.77030000      -2.90620000
H        0.70490000      -3.31680000      -3.08870000
H        0.05690000      -4.70350000      -0.62840000
H       -1.19700000      -5.11940000      -1.86390000
