19
Properties=species:S:1:pos:R:3 gdb_64781=T pbc="F F F"
C        0.03950000       1.53790000       0.49570000
C       -0.00320000       0.07610000       0.09960000
C       -1.37200000      -0.42000000      -0.37470000
C       -1.83840000       0.23450000      -1.59070000
C       -2.21090000       0.78570000      -2.60210000
C       -2.63080000       1.40300000      -3.74000000
C       -3.00280000       1.95090000      -4.75000000
C        1.21370000      -0.53570000      -0.54650000
C        0.84260000      -0.90670000       0.87160000
H        1.04390000       1.82620000       0.81980000
H       -0.24260000       2.18150000      -0.34410000
H       -0.65050000       1.74460000       1.32270000
H       -1.32870000      -1.50340000      -0.54620000
H       -2.11290000      -0.26780000       0.42320000
H       -3.32980000       2.43260000      -5.63760000
H        1.06430000      -1.27750000      -1.32390000
H        2.08100000       0.09710000      -0.70100000
H        1.45600000      -0.52200000       1.67950000
H        0.44820000      -1.90160000       1.05250000
