14
Properties=species:S:1:pos:R:3 gdb_20520=T pbc="F F F"
C       -0.07050000       1.49420000       0.00970000
C        0.02710000      -0.01750000       0.00270000
O        1.09110000      -0.60320000      -0.00840000
C       -1.24150000      -0.78310000       0.00980000
N       -2.43430000      -0.17670000       0.02190000
N       -3.31540000      -1.18150000       0.02480000
C       -2.73230000      -2.41180000       0.01520000
C       -1.37650000      -2.19340000       0.00520000
H        0.93390000       1.91840000       0.00240000
H       -0.63550000       1.84300000      -0.86040000
H       -0.61960000       1.83570000       0.89270000
H       -4.29920000      -0.96730000       0.03350000
H       -3.32150000      -3.31500000       0.01630000
H       -0.58140000      -2.91900000      -0.00410000
