13
Properties=species:S:1:pos:R:3 gdb_19100=T pbc="F F F"
O        0.00850000      -0.02810000       0.04470000
C       -0.01150000       1.16440000       0.06430000
C       -1.10230000       2.25650000      -0.02380000
C       -0.78220000       3.23440000       1.11980000
C        0.71810000       3.25980000       1.09870000
C        1.03880000       2.29280000      -0.05400000
C       -0.05720000       3.14950000      -0.78760000
N       -0.06060000       4.24870000       0.28650000
H       -2.12830000       2.07130000      -0.32620000
H       -1.39390000       3.50770000       1.96980000
H        1.34390000       3.55410000       1.93120000
H        2.06160000       2.14240000      -0.38530000
H       -0.07610000       3.38620000      -1.84740000
