18
Properties=species:S:1:pos:R:3 gdb_78935=T pbc="F F F"
C       -0.03930000       1.62060000       0.00060000
C        0.03310000       0.10890000      -0.06830000
C        0.72010000      -0.62290000      -1.24410000
C        1.14640000      -1.71410000      -0.20520000
C        2.65430000      -1.44950000      -0.41100000
C        2.36660000      -0.17170000       0.33910000
N        1.02340000      -0.59240000       0.84830000
C        2.21270000      -0.20210000      -1.17390000
O        2.92020000       0.66370000      -1.97400000
H        0.92390000       2.08010000      -0.23950000
H       -0.77980000       2.00280000      -0.71000000
H       -0.33550000       1.94400000       1.00410000
H       -0.94710000      -0.33700000       0.13810000
H        0.26190000      -0.82250000      -2.21380000
H        0.64270000      -2.66270000      -0.03070000
H        3.53290000      -2.07860000      -0.44200000
H        3.03530000       0.50050000       0.86060000
H        3.08860000       0.23300000      -2.81920000
