23
Properties=species:S:1:pos:R:3 gdb_78598=T pbc="F F F"
C       -0.18100000       1.61700000      -0.09810000
C       -0.05260000       0.10170000      -0.04540000
C        1.19090000      -0.58410000      -0.65430000
C        2.08890000      -0.26070000       0.58850000
C        2.55110000      -1.72660000       0.71930000
C        2.99020000      -2.26090000       2.07500000
C        1.06230000      -1.82870000       0.30130000
C        0.24300000      -3.07050000       0.07100000
C        0.65700000      -0.56440000       1.15590000
H        0.75530000       2.11410000       0.17570000
H       -0.45520000       1.95430000      -1.10420000
H       -0.95850000       1.97000000       0.58900000
H       -1.00380000      -0.37190000      -0.32070000
H        1.52660000      -0.61330000      -1.69410000
H        2.66840000       0.64970000       0.74860000
H        3.25090000      -2.04300000      -0.06690000
H        2.30400000      -1.95590000       2.87230000
H        3.03420000      -3.35600000       2.07440000
H        3.98870000      -1.89430000       2.33860000
H        0.20250000      -3.68900000       0.97480000
H       -0.78700000      -2.82710000      -0.21160000
H        0.67360000      -3.68160000      -0.73060000
H        0.35880000      -0.56020000       2.20640000
