23
Properties=species:S:1:pos:R:3 gdb_104173=T pbc="F F F"
C        0.08130000       1.69820000       0.13910000
C        0.04360000       0.16680000       0.14860000
C        0.55120000      -0.49420000      -1.13620000
C        2.00240000      -0.12690000      -1.47550000
C        0.34400000      -2.01920000      -1.14980000
O        0.09820000      -2.32530000      -2.51410000
C       -0.32200000      -1.13100000      -3.17180000
C       -1.70570000      -1.28100000      -3.77510000
O       -0.32750000      -0.10370000      -2.20590000
H        1.10430000       2.08450000       0.10030000
H       -0.46230000       2.08880000      -0.72530000
H       -0.38560000       2.09760000       1.04440000
H        0.63240000      -0.21910000       0.99050000
H       -0.98840000      -0.16740000       0.30410000
H        2.66450000      -0.34170000      -0.63030000
H        2.35490000      -0.70560000      -2.33420000
H        2.08600000       0.93430000      -1.72050000
H        1.22440000      -2.57790000      -0.81710000
H       -0.51380000      -2.30420000      -0.52340000
H        0.41980000      -0.91310000      -3.95930000
H       -2.43110000      -1.51370000      -2.99110000
H       -2.00200000      -0.35180000      -4.27030000
H       -1.70390000      -2.08750000      -4.51300000
