17
Properties=species:S:1:pos:R:3 gdb_8667=T pbc="F F F"
C       -0.26430000       1.51540000       0.09690000
N       -0.00060000       0.07530000       0.03940000
C        0.57400000      -0.42510000      -1.20130000
C       -0.10610000       0.11260000      -2.47210000
C        2.09210000      -0.16570000      -1.30290000
O        2.73700000       0.30890000      -0.40510000
C        0.43040000      -1.96150000      -1.19140000
O        0.66530000      -2.66620000      -2.13670000
H        0.60110000       2.14600000      -0.15580000
H       -1.09030000       1.77570000      -0.57030000
H       -0.57740000       1.76330000       1.11450000
H        0.65850000      -0.14150000       0.78270000
H        0.11770000       1.16950000      -2.63640000
H        0.24310000      -0.46080000      -3.33310000
H       -1.19000000      -0.00760000      -2.39390000
H        2.55720000      -0.47590000      -2.26290000
H        0.09150000      -2.36370000      -0.21260000
