20
Properties=species:S:1:pos:R:3 gdb_65531=T pbc="F F F"
C       -0.09190000       1.54250000      -0.00560000
C        0.03670000       0.00910000       0.02000000
C        0.98840000      -0.57960000      -1.10000000
C        2.00500000      -1.31770000      -0.20830000
C        1.08370000      -2.02040000       0.83130000
C        0.79440000      -0.55370000       1.26350000
C        2.28240000      -0.27120000       0.90640000
C       -1.30960000      -0.56740000      -0.06670000
N       -2.37590000      -1.01080000      -0.13150000
H        0.89110000       2.01390000       0.06260000
H       -0.56490000       1.87530000      -0.93380000
H       -0.70310000       1.89600000       0.83010000
H        0.45950000      -1.24630000      -1.78430000
H        1.44310000       0.22350000      -1.68710000
H        2.81080000      -1.84580000      -0.71770000
H        0.24920000      -2.62510000       0.46750000
H        1.64720000      -2.56940000       1.58810000
H        0.36590000      -0.30370000       2.23400000
H        2.95820000      -0.64810000       1.67690000
H        2.58150000       0.73870000       0.61520000
