17
Properties=species:S:1:pos:R:3 gdb_99469=T pbc="F F F"
C       -0.10130000       1.66400000       0.08250000
C       -0.30650000       0.14990000       0.03250000
C        0.64050000      -0.61560000       0.97830000
C        0.43810000      -0.28780000       2.38910000
C        0.23590000      -0.05720000       3.55170000
C        0.46540000      -2.13420000       0.85140000
O       -0.49490000      -2.67630000       0.36500000
C        1.61990000      -3.01040000       1.36150000
O        2.70650000      -2.57860000       1.63850000
H        0.91810000       1.93870000      -0.21040000
H       -0.79150000       2.16870000      -0.59950000
H       -0.27570000       2.05200000       1.09020000
H       -1.33770000      -0.10880000       0.28960000
H       -0.13830000      -0.22390000      -0.98340000
H        1.68810000      -0.39750000       0.72880000
H        0.07520000       0.16400000       4.57810000
H        1.35880000      -4.08890000       1.39260000
