16
Properties=species:S:1:pos:R:3 gdb_12590=T pbc="F F F"
C        0.10570000       1.48850000       0.05810000
C        0.01410000      -0.00020000      -0.00170000
C       -0.06040000      -0.78200000      -1.08570000
C       -0.11270000      -2.25750000      -0.76570000
C        0.21700000      -2.24330000       0.72540000
O        0.72200000      -3.11440000       1.38630000
C       -0.04870000      -0.82950000       1.26340000
O        0.87770000      -0.46230000       2.25810000
H        0.98120000       1.78940000       0.64360000
H        0.18010000       1.92770000      -0.94020000
H       -0.76940000       1.91870000       0.56170000
H       -0.08190000      -0.41130000      -2.10490000
H       -1.10590000      -2.70120000      -0.92820000
H        0.60140000      -2.87650000      -1.31960000
H       -1.07740000      -0.80240000       1.67460000
H        1.20730000      -1.29360000       2.62890000
