17
Properties=species:S:1:pos:R:3 gdb_44494=T pbc="F F F"
N       -0.04480000       1.22060000      -0.58160000
C       -0.01090000       0.07700000      -0.04460000
C       -1.27290000      -0.72190000       0.21330000
C       -1.00800000      -2.06660000       0.86570000
C        0.04700000      -2.12020000       2.00810000
N        0.21060000      -3.59060000       1.68870000
C        0.19880000      -2.89800000       0.34290000
C        1.11580000      -1.78950000       0.92990000
O        1.16860000      -0.50500000       0.33470000
H        0.90140000       1.59660000      -0.67080000
H       -1.93780000      -0.11460000       0.83670000
H       -1.79360000      -0.85180000      -0.74140000
H       -1.90830000      -2.65300000       1.05750000
H       -0.03490000      -1.75050000       3.03100000
H        1.16730000      -3.88660000       1.91430000
H        0.29580000      -3.44470000      -0.59580000
H        2.14740000      -2.06970000       1.15490000
