17
Properties=species:S:1:pos:R:3 gdb_35380=T pbc="F F F"
C       -0.07160000      -1.23740000      -0.08520000
C       -0.05250000      -0.03580000      -0.04080000
C       -0.01060000       1.41770000       0.02990000
C       -0.52890000       2.01200000       1.39460000
C        0.70630000       2.77840000       1.84320000
C        1.40460000       3.42860000       0.61250000
O        2.72990000       3.22700000       1.21170000
C        1.99170000       1.98160000       1.47020000
C        1.41520000       1.98810000       0.02560000
H       -0.09480000      -2.29790000      -0.13210000
H       -0.58510000       1.82910000      -0.80850000
H       -1.39750000       2.66050000       1.24960000
H       -0.81190000       1.22250000       2.09450000
H        0.69830000       3.33150000       2.78150000
H        1.20520000       4.37990000       0.11740000
H        2.50200000       1.18480000       2.01080000
H        2.08060000       1.76120000      -0.80520000
