17
Properties=species:S:1:pos:R:3 gdb_54224=T pbc="F F F"
C       -0.10600000       1.54700000       0.15360000
C        0.08120000       0.06800000      -0.09110000
O        1.15900000      -0.45020000      -0.26480000
C       -1.20770000      -0.77340000      -0.06100000
O       -2.29400000      -0.08690000      -0.62730000
C       -1.00390000      -2.26380000      -0.47690000
N       -1.09750000      -2.59620000       0.96120000
C       -1.50340000      -1.34020000       1.33980000
N       -2.02930000      -0.74460000       2.32560000
H        0.86650000       2.03620000       0.21210000
H       -0.70590000       1.98360000      -0.64990000
H       -0.66540000       1.69520000       1.08460000
H       -2.89850000       0.12320000       0.09670000
H       -1.83880000      -2.63210000      -1.07910000
H       -0.03900000      -2.50050000      -0.92510000
H       -1.31660000      -3.48180000       1.39270000
H       -2.23610000      -1.36720000       3.10710000
