18
Properties=species:S:1:pos:R:3 gdb_107548=T pbc="F F F"
O        0.06540000       1.38680000       0.08620000
C        0.09390000      -0.03200000      -0.02900000
C       -1.31640000      -0.51620000      -0.09440000
C       -2.22350000      -0.74090000       1.08750000
C       -1.94220000      -1.88690000       0.14650000
C       -2.73510000      -1.71250000      -1.16060000
N       -2.11250000      -0.38420000      -1.31370000
C       -2.64840000       0.72930000      -1.88700000
O       -3.59100000       0.71610000      -2.65110000
H        0.95280000       1.72090000      -0.07650000
H        0.62810000      -0.34480000      -0.93800000
H        0.59270000      -0.49720000       0.83580000
H       -1.72200000      -0.80220000       2.04820000
H       -3.20510000      -0.27620000       1.11370000
H       -1.45610000      -2.79950000       0.46220000
H       -2.44030000      -2.40190000      -1.95710000
H       -3.82640000      -1.68910000      -1.08370000
H       -2.09010000       1.64150000      -1.60240000
