19
Properties=species:S:1:pos:R:3 gdb_6165=T pbc="F F F"
C       -0.07600000       1.37860000      -0.17070000
C       -0.00800000      -0.13400000      -0.05360000
O        0.95400000      -0.78700000      -0.39880000
N       -1.11120000      -0.71270000       0.55960000
C       -2.51010000      -0.57810000       0.20820000
C       -1.81110000      -1.91740000       0.15910000
C       -1.50230000      -2.51920000      -1.19810000
C       -2.06130000      -2.91940000       1.26860000
H        0.92930000       1.76890000      -0.32990000
H       -0.69820000       1.65980000      -1.02820000
H       -0.52140000       1.82770000       0.72070000
H       -3.19040000      -0.34540000       1.02460000
H       -2.75680000      -0.10380000      -0.73990000
H       -1.41520000      -1.75070000      -1.97030000
H       -0.55570000      -3.06520000      -1.16870000
H       -2.29730000      -3.21320000      -1.48980000
H       -2.92580000      -3.54900000       1.03240000
H       -1.19200000      -3.57300000       1.39600000
H       -2.24660000      -2.41180000       2.21830000
