25
Properties=species:S:1:pos:R:3 gdb_101810=T pbc="F F F"
C        0.14120000       1.37530000      -0.20680000
C        0.03150000      -0.13180000       0.05390000
C        0.52920000      -0.50230000       1.45600000
C       -1.40690000      -0.60150000      -0.16990000
O       -1.45300000      -2.01170000      -0.06780000
C       -2.75050000      -2.60200000      -0.01340000
C       -3.48160000      -2.53350000      -1.35560000
C       -2.49030000      -4.04340000       0.43240000
O       -1.63200000      -4.71870000      -0.46720000
H        1.17300000       1.71810000      -0.08250000
H       -0.17790000       1.63460000      -1.22200000
H       -0.48110000       1.94340000       0.49500000
H        0.65260000      -0.65830000      -0.68370000
H       -0.04000000       0.03480000       2.22480000
H        0.41450000      -1.57320000       1.63860000
H        1.58470000      -0.24040000       1.58110000
H       -2.07360000      -0.14800000       0.58440000
H       -1.75690000      -0.26820000      -1.15870000
H       -3.34780000      -2.09440000       0.76280000
H       -3.60500000      -1.50330000      -1.69970000
H       -2.92790000      -3.09770000      -2.10990000
H       -4.47980000      -2.97290000      -1.26000000
H       -2.06940000      -4.02660000       1.44970000
H       -3.43050000      -4.60370000       0.46280000
H       -0.87150000      -4.13620000      -0.58200000
