21
Properties=species:S:1:pos:R:3 gdb_19967=T pbc="F F F"
C       -0.19610000       1.50670000       0.06910000
C       -0.00120000      -0.00620000       0.03000000
C        1.14260000      -0.47530000      -0.92060000
C        2.07970000      -0.61050000       0.31050000
C        0.82510000      -0.59850000       1.21800000
N        0.90870000       0.18710000       2.43300000
C       -0.04710000      -0.14440000       3.48740000
C        1.38720000      -0.51710000       3.62000000
H        0.74960000       2.03280000       0.22880000
H       -0.62500000       1.85710000      -0.87630000
H       -0.87080000       1.80070000       0.87880000
H       -0.96720000      -0.49440000      -0.13260000
H        0.92870000      -1.44000000      -1.38860000
H        1.44560000       0.22740000      -1.70100000
H        2.73400000      -1.48380000       0.36420000
H        2.67940000       0.28870000       0.47320000
H        0.49410000      -1.63200000       1.42410000
H       -0.45280000       0.69790000       4.04040000
H       -0.75510000      -0.95040000       3.29960000
H        1.63800000      -1.57220000       3.52060000
H        2.04750000       0.04780000       4.27180000
