10
Properties=species:S:1:pos:R:3 gdb_130533=T pbc="F F F"
O       -0.08700000       1.17400000       0.00930000
N        1.10330000       2.05460000       0.00250000
N        2.23520000       1.54630000      -0.01110000
C        2.34320000       0.18340000      -0.01950000
N        3.41860000      -0.55510000      -0.03330000
C        2.86570000      -1.84250000      -0.03550000
N        1.55090000      -1.96210000      -0.02350000
C        1.15910000      -0.65080000      -0.01240000
N       -0.04920000      -0.16850000       0.00170000
H        3.52100000      -2.70440000      -0.04610000
