18
Properties=species:S:1:pos:R:3 gdb_74183=T pbc="F F F"
C       -0.05290000       1.48380000       0.07380000
C        0.01400000      -0.01400000      -0.00980000
C        0.00060000      -0.68060000      -1.17390000
C       -0.00040000      -2.15550000      -1.28260000
O        0.01190000      -2.73930000      -2.35480000
N       -0.04590000      -2.84170000      -0.08970000
C        0.08970000      -2.26140000       1.20730000
C        1.35160000      -1.54810000       1.61980000
C        0.09520000      -0.75220000       1.27480000
H        0.81860000       1.88380000       0.60670000
H       -0.09720000       1.94240000      -0.91650000
H       -0.93750000       1.80070000       0.64090000
H       -0.03320000      -0.16440000      -2.12670000
H        0.00750000      -3.84500000      -0.18250000
H       -0.45770000      -2.79710000       1.97660000
H        1.64750000      -1.58870000       2.66220000
H        2.16390000      -1.51760000       0.90260000
H       -0.41770000      -0.28700000       2.11130000
