18
Properties=species:S:1:pos:R:3 gdb_62780=T pbc="F F F"
C       -0.05670000       1.54770000      -0.08220000
C        0.02190000       0.03770000       0.01180000
C       -1.19880000      -0.69340000      -0.52680000
C        1.30590000      -0.70480000      -0.19560000
O        2.44350000       0.04250000       0.27180000
C        1.96750000      -0.06820000       1.63470000
C        1.94690000       1.19600000       2.37900000
N        1.93720000       2.16790000       3.00400000
C        0.65960000      -0.71470000       1.17820000
H        0.89830000       2.02320000       0.14340000
H       -0.34090000       1.83980000      -1.09930000
H       -0.81050000       1.94730000       0.60380000
H       -1.38120000      -0.41810000      -1.57080000
H       -1.07840000      -1.78090000      -0.48130000
H       -2.09220000      -0.43240000       0.05040000
H        1.49420000      -1.48390000      -0.92540000
H        2.59590000      -0.77760000       2.18740000
H        0.15300000      -1.50120000       1.72080000
