16
Properties=species:S:1:pos:R:3 gdb_17949=T pbc="F F F"
O       -0.07390000       1.41410000      -0.05370000
C        0.03340000       0.04080000      -0.02760000
C       -1.05340000      -1.02170000       0.06980000
C       -0.46640000      -1.78180000      -1.11870000
C        0.81590000      -0.89120000      -1.01200000
C        1.83930000      -1.55600000      -0.09350000
O        1.12270000      -1.78330000       1.13260000
C        0.03900000      -0.87890000       1.13770000
H        0.64230000       1.78950000       0.47070000
H       -2.10110000      -0.91300000       0.32630000
H       -0.31710000      -2.85980000      -0.99890000
H       -1.02240000      -1.58980000      -2.03910000
H        1.21180000      -0.46290000      -1.93160000
H        2.19910000      -2.52350000      -0.45790000
H        2.70770000      -0.90120000       0.08630000
H       -0.25870000      -0.54650000       2.12520000
