15
Properties=species:S:1:pos:R:3 gdb_26551=T pbc="F F F"
N        0.07270000       1.38180000       0.11760000
C       -0.03700000       0.00880000       0.04930000
C       -1.19610000      -0.68470000       0.00220000
N       -2.43550000      -0.00190000      -0.06050000
C       -1.15090000      -2.13520000      -0.06490000
N       -2.23180000      -2.81470000      -0.17850000
N        0.13440000      -2.72980000      -0.01530000
C        1.15260000      -1.98010000       0.06440000
O        1.17620000      -0.62250000       0.10110000
H        0.93980000       1.73930000      -0.26140000
H       -0.74480000       1.83440000      -0.27620000
H       -2.66550000       0.44160000       0.82470000
H       -3.15370000      -0.69740000      -0.25090000
H       -2.00710000      -3.80830000      -0.22870000
H        2.16350000      -2.37240000       0.11770000
