21
Properties=species:S:1:pos:R:3 gdb_88071=T pbc="F F F"
C       -0.10520000       1.51910000      -0.01810000
C       -0.01480000       0.01100000       0.06740000
C        1.28230000      -0.71060000      -0.21390000
C        0.71880000      -0.67720000       1.19120000
C        1.41590000       0.06490000       2.33920000
C        1.87900000      -1.04790000       3.31660000
C        0.90730000      -2.18640000       3.06850000
O       -0.46810000      -1.77660000       3.04310000
C        0.22090000      -1.95770000       1.79210000
H        0.82200000       1.99730000       0.31180000
H       -0.29430000       1.84100000      -1.04810000
H       -0.91830000       1.90560000       0.60610000
H       -0.91110000      -0.50310000      -0.27330000
H        1.25210000      -1.64450000      -0.76710000
H        2.16440000      -0.10810000      -0.41020000
H        2.24830000       0.68590000       2.00040000
H        0.70000000       0.71910000       2.84430000
H        2.89110000      -1.39410000       3.07400000
H        1.88610000      -0.71360000       4.35840000
H        1.09120000      -3.17830000       3.47430000
H       -0.15720000      -2.75850000       1.16020000
