15
Properties=species:S:1:pos:R:3 gdb_106101=T pbc="F F F"
O        0.23310000       1.36570000       0.12360000
C        0.05800000      -0.02560000      -0.07590000
C       -1.37830000      -0.43570000      -0.04770000
C       -2.41490000      -0.73250000       0.97140000
O       -3.44740000       0.04150000       0.35990000
C       -2.66820000      -0.03040000      -0.86700000
C       -2.73660000      -1.53100000      -1.25080000
O       -3.00440000      -2.12860000      -2.25190000
C       -2.02510000      -1.87060000       0.02560000
H       -0.15560000       1.59470000       0.97450000
H        0.49230000      -0.24180000      -1.05770000
H        0.61520000      -0.62390000       0.66270000
H       -2.38680000      -0.82590000       2.05010000
H       -2.81740000       0.79360000      -1.55830000
H       -1.56440000      -2.79470000       0.34570000
