13
Properties=species:S:1:pos:R:3 gdb_7879=T pbc="F F F"
N        0.04520000       1.34060000      -0.10160000
C       -0.08660000      -0.00550000      -0.04430000
C       -1.13850000      -0.85490000      -0.02240000
C       -0.63330000      -2.22860000      -0.01250000
N       -1.33950000      -3.28840000       0.01210000
N        0.77830000      -2.12700000      -0.03440000
C        1.18720000      -0.81390000      -0.03370000
O        2.31640000      -0.37550000      -0.01490000
H        0.97510000       1.69620000       0.06380000
H       -0.72800000       1.94070000       0.12780000
H       -2.19430000      -0.63320000      -0.01790000
H       -0.75840000      -4.12820000       0.01100000
H        1.41540000      -2.90530000       0.00290000
