19
Properties=species:S:1:pos:R:3 gdb_86205=T pbc="F F F"
O        0.05610000       0.96520000       1.24660000
C        0.12610000       0.04440000       0.15660000
C        0.94320000      -1.17240000       0.59610000
C       -0.00970000      -1.92040000       1.53690000
O       -0.09050000      -1.30550000       2.82140000
C       -1.39330000      -1.81040000       0.82460000
O       -2.44490000      -1.67340000       1.75980000
C       -1.29290000      -0.53730000      -0.09920000
O       -2.28530000       0.41270000       0.22740000
H       -0.83480000       1.34980000       1.16740000
H        0.53770000       0.54570000      -0.72810000
H        1.17920000      -1.79520000      -0.27490000
H        1.88260000      -0.89790000       1.08230000
H        0.27630000      -2.96040000       1.71110000
H        0.00350000      -0.34970000       2.65800000
H       -1.58850000      -2.69930000       0.21710000
H       -1.98800000      -1.47130000       2.59780000
H       -1.39120000      -0.82430000      -1.15310000
H       -2.81510000      -0.02890000       0.91740000
