14
Properties=species:S:1:pos:R:3 gdb_132300=T pbc="F F F"
N        0.03330000       1.39200000       0.17560000
C       -0.04710000       0.01820000       0.05980000
C       -1.22790000      -0.68400000       0.03350000
C       -1.13680000      -2.09180000      -0.01120000
F       -2.29220000      -2.75710000      -0.03310000
C        0.03520000      -2.78690000      -0.04290000
C        1.28670000      -2.07860000      -0.01930000
O        2.41530000      -2.53940000      -0.03160000
N        1.13040000      -0.66210000       0.03020000
H        0.82110000       1.83040000      -0.28000000
H       -0.83100000       1.87950000      -0.00620000
H       -2.18800000      -0.18940000       0.04040000
H        0.05360000      -3.86650000      -0.07840000
H        2.00820000      -0.16600000       0.10360000
