25
Properties=species:S:1:pos:R:3 gdb_104194=T pbc="F F F"
C        0.03750000       1.59930000      -0.11980000
C       -0.00380000       0.07850000       0.08080000
C       -1.41180000      -0.53170000       0.06420000
C       -2.27230000       0.02520000       1.20630000
C       -2.18430000      -0.48700000      -1.29350000
C       -2.64240000      -1.95090000      -1.06670000
C       -1.51560000      -2.10590000      -0.00200000
C       -0.29090000      -2.83360000      -0.55330000
O       -1.88540000      -2.66360000       1.24850000
H        1.07210000       1.95030000      -0.18840000
H       -0.47220000       1.89190000      -1.04460000
H       -0.43660000       2.13780000       0.70560000
H        0.60080000      -0.38480000      -0.70680000
H        0.48520000      -0.17570000       1.03100000
H       -2.40510000       1.10530000       1.09280000
H       -3.26370000      -0.43280000       1.22720000
H       -1.80720000      -0.16670000       2.17760000
H       -2.96850000       0.26840000      -1.38350000
H       -1.51190000      -0.38980000      -2.15150000
H       -3.62840000      -2.01180000      -0.60050000
H       -2.61360000      -2.62950000      -1.92400000
H        0.02150000      -2.44120000      -1.52530000
H        0.55440000      -2.76820000       0.13770000
H       -0.53200000      -3.89480000      -0.69930000
H       -1.91160000      -3.62150000       1.15320000
