21
Properties=species:S:1:pos:R:3 gdb_78453=T pbc="F F F"
C       -0.00940000       1.60670000      -0.07210000
C        0.02650000       0.08050000      -0.05770000
C        1.20370000      -0.61020000      -0.81530000
C        2.07430000      -0.30480000       0.45590000
C        0.70800000      -0.60330000       1.17010000
C        0.59600000      -2.11460000       0.89090000
C       -0.31850000      -2.72040000      -0.15300000
O       -1.58450000      -2.27800000      -0.56180000
C        0.97660000      -2.12060000      -0.61020000
H        0.94470000       2.08270000       0.16700000
H       -0.31690000       1.96630000      -1.06060000
H       -0.74800000       1.97350000       0.65000000
H       -0.96280000      -0.28670000      -0.31100000
H        1.50480000      -0.29170000      -1.81470000
H        2.90490000      -0.98470000       0.66630000
H        2.41450000       0.72830000       0.53650000
H        0.50570000      -0.27620000       2.19180000
H        1.05850000      -2.78860000       1.60580000
H       -0.25810000      -3.81200000      -0.13160000
H       -2.19920000      -2.45600000       0.15840000
H        1.72900000      -2.79000000      -1.01550000
