20
Properties=species:S:1:pos:R:3 gdb_85326=T pbc="F F F"
C       -0.03240000       1.49570000      -0.05430000
N        0.10420000       0.05630000      -0.02020000
C        0.67760000      -0.55450000      -1.20800000
C        1.12550000      -1.94550000      -0.74500000
O        1.41400000      -2.86490000      -1.46530000
C        1.17020000      -1.94340000       0.78060000
C        2.59730000      -1.68460000       1.35700000
C        2.26600000      -0.16980000       1.45830000
C        0.75710000      -0.50340000       1.15450000
H        0.93250000       2.02830000      -0.15070000
H       -0.66080000       1.79110000      -0.90100000
H       -0.51940000       1.84110000       0.86370000
H       -0.04430000      -0.62560000      -2.02870000
H        1.56630000      -0.02370000      -1.60700000
H        0.61680000      -2.79510000       1.17960000
H        2.72580000      -2.15620000       2.33350000
H        3.43460000      -1.97860000       0.72000000
H        2.47100000       0.30630000       2.41920000
H        2.73610000       0.42950000       0.67350000
H        0.11320000      -0.38950000       2.03110000
