21
Properties=species:S:1:pos:R:3 gdb_100892=T pbc="F F F"
C        0.17430000       1.45300000       0.19370000
N       -0.09980000       0.04560000      -0.08630000
C        0.61000000      -0.49830000      -1.23850000
C        2.08260000      -0.45840000      -1.04300000
N        3.21740000      -0.40230000      -0.82520000
C        0.11980000      -1.92970000      -1.57000000
C       -1.38280000      -1.93250000      -1.87100000
C        0.91760000      -2.53740000      -2.72770000
O        0.46790000      -3.87200000      -2.90290000
H        1.23930000       1.68260000       0.35480000
H       -0.18250000       2.06380000      -0.64280000
H       -0.38350000       1.75080000       1.08530000
H        0.11180000      -0.51850000       0.73100000
H        0.38570000       0.15150000      -2.09580000
H        0.31020000      -2.55750000      -0.68870000
H       -1.60050000      -1.31320000      -2.75000000
H       -1.71260000      -2.95010000      -2.08670000
H       -1.95200000      -1.53400000      -1.03020000
H        0.75250000      -1.93800000      -3.63990000
H        1.99270000      -2.51020000      -2.50270000
H        1.00110000      -4.28060000      -3.59050000
