12
Properties=species:S:1:pos:R:3 gdb_17013=T pbc="F F F"
N       -0.03620000      -1.18160000      -0.05560000
C       -0.00010000      -0.02810000      -0.00080000
C       -0.02490000       1.42660000       0.00150000
C        0.04740000       2.12520000       1.39630000
N        1.49310000       1.64480000       1.45090000
C        1.35920000       2.14980000       0.01870000
C        0.62220000       3.36090000       0.65210000
O        0.66450000       4.54630000       0.71340000
H       -0.76780000       1.81100000      -0.69900000
H       -0.63580000       2.01860000       2.23510000
H        2.07630000       2.26670000       2.01720000
H        2.16520000       2.07090000      -0.70640000
