23
Properties=species:S:1:pos:R:3 gdb_82971=T pbc="F F F"
C       -0.34280000       1.55950000       0.03780000
C        0.02170000       0.08320000      -0.02230000
C        0.60890000      -0.53830000      -1.31480000
C        1.82060000       0.20560000      -1.94560000
C        2.81840000      -0.61460000      -1.06380000
C        3.51610000       0.13090000       0.07730000
C        2.41210000       0.42860000       1.12770000
C        1.22080000      -0.50850000       0.80670000
C        1.61180000      -1.36780000      -0.44110000
H        0.48510000       2.21030000      -0.26000000
H       -1.18260000       1.77520000      -0.63270000
H       -0.64390000       1.85250000       1.05020000
H       -0.86760000      -0.50130000       0.24200000
H       -0.09990000      -0.97850000      -2.01850000
H        1.93100000      -0.00820000      -3.01160000
H        1.84830000       1.29290000      -1.82100000
H        3.51130000      -1.21870000      -1.65410000
H        4.28340000      -0.51810000       0.51580000
H        4.02720000       1.03720000      -0.26540000
H        2.78380000       0.25560000       2.14190000
H        2.10680000       1.47870000       1.09470000
H        0.89580000      -1.05950000       1.69150000
H        1.61260000      -2.45460000      -0.36020000
