17
Properties=species:S:1:pos:R:3 gdb_19498=T pbc="F F F"
N        0.18140000      -1.25570000       0.10400000
C        0.13770000      -0.09880000       0.09030000
C        0.06040000       1.33390000       0.05760000
C        0.44630000       2.22100000       1.23870000
C        1.26710000       1.62360000       2.37220000
C        2.48970000       0.95180000       1.69530000
C        2.65400000       1.65160000       0.32150000
C        1.28890000       2.23800000      -0.00720000
H       -0.79190000       1.68840000      -0.51400000
H       -0.24730000       3.02310000       1.46540000
H        1.58370000       2.44220000       3.02840000
H        0.69800000       0.91950000       2.98700000
H        3.39130000       1.04040000       2.30630000
H        2.30410000      -0.11400000       1.55520000
H        3.37040000       2.47830000       0.38640000
H        3.02160000       0.96640000      -0.44860000
H        1.23080000       3.05290000      -0.72020000
