16
Properties=species:S:1:pos:R:3 gdb_44858=T pbc="F F F"
O        0.01350000       0.02790000       0.08100000
C       -0.01240000       1.22580000       0.03100000
C       -1.25130000       2.15480000       0.00460000
C       -0.55300000       3.52930000       0.05340000
O        0.61130000       3.28730000      -0.75680000
C        1.17640000       2.21560000      -0.00270000
C        1.22080000       2.77930000       1.42630000
N        1.39890000       4.24610000       1.45690000
C        0.03940000       3.67960000       1.46140000
H       -1.79780000       2.01790000      -0.93290000
H       -1.92400000       1.93060000       0.83660000
H       -1.10250000       4.37660000      -0.35440000
H        2.09690000       1.85390000      -0.45540000
H        1.52210000       2.15600000       2.25940000
H        1.64110000       4.51270000       2.40920000
H       -0.60710000       3.77280000       2.32650000
