15
Properties=species:S:1:pos:R:3 gdb_26996=T pbc="F F F"
C       -0.13620000       1.54330000       0.20000000
C        0.00870000       0.06900000       0.03100000
C        0.09750000      -0.68310000      -1.09640000
C        0.07310000      -0.39150000      -2.56010000
C        1.35770000      -0.64190000      -3.22660000
N        2.36720000      -0.83950000      -3.75130000
O        0.22500000      -1.99840000      -0.72380000
C        0.20620000      -1.96280000       0.62580000
N        0.07890000      -0.78390000       1.13430000
H        0.71400000       1.95250000       0.75500000
H       -0.19270000       2.05820000      -0.76250000
H       -1.04000000       1.77970000       0.77060000
H       -0.69610000      -0.99260000      -3.06060000
H       -0.19840000       0.65800000      -2.70940000
H        0.29670000      -2.90870000       1.13660000
