14
Properties=species:S:1:pos:R:3 gdb_21994=T pbc="F F F"
O       -0.12280000       1.35690000       0.10900000
N        0.04920000      -0.04550000       0.07370000
C       -1.08810000      -0.64810000      -0.04710000
C       -2.39700000      -0.00610000      -0.13830000
C       -3.50170000      -0.74540000      -0.26120000
O       -3.49860000      -2.11540000      -0.31010000
C       -2.29000000      -2.73860000      -0.22700000
O       -2.42090000      -4.07240000      -0.28620000
C       -1.11890000      -2.09660000      -0.10180000
H        0.78480000       1.66270000       0.19920000
H       -2.47140000       1.07060000      -0.10610000
H       -4.51080000      -0.36350000      -0.33550000
H       -3.35960000      -4.27770000      -0.37570000
H       -0.20220000      -2.66620000      -0.04220000
