15
Properties=species:S:1:pos:R:3 gdb_29851=T pbc="F F F"
C        0.03030000       1.45880000       0.05380000
N       -0.01780000       0.01190000       0.01280000
C       -1.10310000      -0.81270000       0.10990000
C       -0.66660000      -2.09260000       0.01900000
O        0.71250000      -2.07720000      -0.13770000
C        1.12760000      -0.76950000      -0.14290000
N        2.29840000      -0.30740000      -0.26140000
C       -1.40850000      -3.32920000       0.06370000
O       -0.93870000      -4.44300000      -0.02570000
H        0.65950000       1.79100000       0.88400000
H        0.45870000       1.84760000      -0.87400000
H       -0.98190000       1.84480000       0.18180000
H       -2.10550000      -0.43690000       0.23620000
H        2.98080000      -1.05380000      -0.36320000
H       -2.50060000      -3.15530000       0.19370000
