17
Properties=species:S:1:pos:R:3 gdb_42474=T pbc="F F F"
O        0.66980000       0.00170000       0.27430000
C        0.38920000       1.14530000       0.01790000
C        1.26220000       2.09210000      -0.80040000
N        2.56750000       1.58500000      -1.14160000
C        3.60570000       1.83580000      -0.17030000
C        3.73300000       1.08770000       1.14430000
C        4.70530000       0.83690000       0.01110000
C       -0.90810000       1.71650000       0.44120000
N       -1.90530000       2.20520000       0.76430000
H        0.67490000       2.32360000      -1.70490000
H        1.34910000       3.04270000      -0.26090000
H        2.51290000       0.59830000      -1.36800000
H        3.89930000       2.88300000      -0.15510000
H        4.08460000       1.63020000       2.01560000
H        3.00710000       0.31080000       1.35180000
H        4.61920000      -0.10700000      -0.51860000
H        5.72330000       1.19900000       0.09800000
