15
Properties=species:S:1:pos:R:3 gdb_133201=T pbc="F F F"
C       -0.03230000       1.44390000      -0.00850000
C       -0.00720000      -0.05230000       0.01710000
N       -0.03510000      -0.66740000      -1.12370000
N       -0.01240000      -2.02570000      -1.10630000
C        0.03750000      -2.75200000       0.03500000
F        0.05190000      -4.06070000      -0.17250000
C        0.06880000      -2.18090000       1.25400000
C        0.04780000      -0.73160000       1.33640000
N        0.07120000       0.00250000       2.39630000
H        0.85090000       1.84210000       0.50050000
H       -0.07060000       1.80550000      -1.03670000
H       -0.89440000       1.81370000       0.55520000
H       -0.03500000      -2.47770000      -2.00550000
H        0.10840000      -2.79900000       2.14120000
H        0.10860000      -0.58170000       3.23410000
