18
Properties=species:S:1:pos:R:3 gdb_105208=T pbc="F F F"
C        0.37320000      -1.28360000       1.68240000
N        0.02410000      -0.48000000       0.49790000
H       -0.93250000       1.03340000       1.26910000
H        0.73710000      -0.57470000      -0.21350000
C       -1.28730000      -0.73590000      -0.04650000
C       -1.47320000      -0.92650000      -1.54640000
C       -1.70190000      -2.08040000      -0.61410000
O       -0.73120000      -3.08310000      -0.54460000
C       -2.37980000       0.07810000       0.61240000
O       -1.90720000       1.07980000       1.36930000
O       -3.55570000      -0.12820000       0.45470000
H        1.36530000      -0.98190000       2.02950000
H       -0.34020000      -1.06690000       2.48340000
H        0.36640000      -2.36070000       1.48800000
H       -2.32800000      -0.44230000      -2.00320000
H       -0.56650000      -0.95470000      -2.14300000
H       -2.72800000      -2.38380000      -0.41980000
H       -0.83900000      -3.65430000      -1.31230000
