20
Properties=species:S:1:pos:R:3 gdb_35894=T pbc="F F F"
C        0.00710000      -1.22630000       0.01730000
C        0.00620000      -0.02470000       0.00730000
C       -0.01650000       1.43690000       0.03090000
C       -0.92110000       1.96820000       1.16970000
C       -0.79910000       3.49060000       1.25660000
C        0.63530000       3.88770000       1.63490000
C        1.68680000       3.16390000       0.79130000
C        2.18690000       1.81980000       1.20440000
N        1.36420000       1.95660000       0.01030000
H        0.01330000      -2.28810000       0.00960000
H       -0.46430000       1.78580000      -0.91110000
H       -1.94980000       1.65870000       0.96070000
H       -0.64150000       1.50630000       2.12420000
H       -1.06570000       3.92950000       0.28580000
H       -1.50440000       3.89410000       1.99010000
H        0.76760000       4.96780000       1.52080000
H        0.79670000       3.66830000       2.69730000
H        2.37860000       3.81750000       0.26400000
H        3.21690000       1.52130000       1.02640000
H        1.74410000       1.38760000       2.10020000
