21
Properties=species:S:1:pos:R:3 gdb_122241=T pbc="F F F"
C        0.17510000       1.46480000       0.30380000
C       -0.12800000       0.02430000      -0.11490000
C        0.85350000      -0.50360000      -1.15990000
N        0.51160000      -1.87210000      -1.54970000
C        1.35920000      -2.45490000      -2.55230000
C        2.81000000      -2.85870000      -2.26520000
C        1.75050000      -3.91120000      -2.43620000
C        1.09340000      -1.95720000      -3.88770000
N        0.90090000      -1.54640000      -4.95160000
H        1.17850000       1.55320000       0.73470000
H        0.12140000       2.14500000      -0.55300000
H       -0.54040000       1.81670000       1.05270000
H       -0.09850000      -0.62830000       0.76930000
H       -1.14350000      -0.05020000      -0.51940000
H        0.80270000       0.12000000      -2.06090000
H        1.88760000      -0.41890000      -0.77890000
H        0.46110000      -2.47750000      -0.73890000
H        3.54800000      -2.73480000      -3.04900000
H        3.16600000      -2.65030000      -1.26240000
H        1.39270000      -4.43540000      -1.55600000
H        1.75040000      -4.50680000      -3.34100000
