13
Properties=species:S:1:pos:R:3 gdb_1311=T pbc="F F F"
C       -0.12850000       1.57980000       0.06490000
C       -0.03630000       0.06380000      -0.02320000
O       -1.29470000      -0.56730000       0.05240000
C        0.82090000      -0.53470000      -1.15580000
O        1.78910000      -1.04030000      -0.17670000
C        1.04550000      -0.58200000       0.87810000
O        1.25250000      -0.71500000       2.04120000
H        0.85280000       2.04850000      -0.05630000
H       -0.80160000       1.95710000      -0.71040000
H       -0.52130000       1.87640000       1.04310000
H       -1.66980000      -0.37990000       0.92080000
H        0.34090000      -1.35530000      -1.69010000
H        1.29500000       0.16930000      -1.84160000
