21
Properties=species:S:1:pos:R:3 gdb_110408=T pbc="F F F"
C       -0.01330000       1.44940000       0.03010000
C       -0.02570000      -0.04970000      -0.00980000
C       -1.22520000      -0.96440000      -0.26960000
C       -0.33300000      -2.11820000       0.25730000
C        0.56070000      -1.02830000       0.98200000
C        1.23140000      -0.86700000      -0.36690000
C        0.77630000      -2.25200000      -0.82610000
C        1.78340000      -3.34730000      -0.53310000
O        1.13120000      -4.59910000      -0.71490000
H        0.94760000       1.82880000       0.39490000
H       -0.18070000       1.87810000      -0.96540000
H       -0.79550000       1.83560000       0.69380000
H       -2.04540000      -0.73420000       0.41780000
H       -1.61720000      -1.05480000      -1.29070000
H       -0.76110000      -3.01100000       0.70600000
H        0.92290000      -0.90120000       1.99230000
H        2.16610000      -0.36340000      -0.58640000
H        0.41940000      -2.35670000      -1.85880000
H        2.64780000      -3.25030000      -1.21060000
H        2.15910000      -3.23720000       0.49690000
H        1.76470000      -5.29740000      -0.52720000
