21
Properties=species:S:1:pos:R:3 gdb_70758=T pbc="F F F"
O       -0.13380000       1.36810000       0.05010000
C        0.01720000      -0.02970000      -0.00010000
C       -0.43130000      -0.73420000      -1.25750000
C       -1.28810000      -0.76080000       0.00070000
C       -1.45160000      -2.01590000       0.83250000
O       -1.37660000      -1.76220000       2.22690000
C       -0.06540000      -1.74630000       2.76230000
C        0.82610000      -0.57000000       2.33900000
C        1.16880000      -0.55590000       0.84030000
H        0.61280000       1.76080000      -0.41640000
H       -0.77770000      -0.11810000      -2.07970000
H        0.07760000      -1.64730000      -1.55230000
H       -2.15530000      -0.10780000      -0.01420000
H       -2.44070000      -2.45280000       0.65680000
H       -0.70680000      -2.77480000       0.54400000
H       -0.20050000      -1.72580000       3.84880000
H        0.44760000      -2.69250000       2.51180000
H        0.34190000       0.37550000       2.60640000
H        1.74820000      -0.63920000       2.93060000
H        1.44890000      -1.56470000       0.51340000
H        2.04800000       0.07560000       0.65730000
