20
Properties=species:S:1:pos:R:3 gdb_72020=T pbc="F F F"
C       -0.01040000       1.50730000      -0.02000000
C        0.01110000      -0.00260000      -0.06010000
C        0.83100000      -0.72290000      -1.15130000
C        0.70680000      -2.13420000      -0.53120000
C        1.35670000      -1.89400000       0.85380000
C        0.34720000      -0.82390000       1.25960000
N       -0.98670000      -1.54280000       1.19680000
C       -0.79790000      -2.18650000      -0.14730000
C       -1.31140000      -0.79610000      -0.05540000
H        0.99670000       1.91280000       0.12810000
H       -0.39950000       1.92330000      -0.95680000
H       -0.64240000       1.87640000       0.79480000
H        0.35500000      -0.63650000      -2.13390000
H        1.87000000      -0.38190000      -1.22630000
H        1.07220000      -2.97530000      -1.11870000
H        1.31100000      -2.76060000       1.51940000
H        2.38980000      -1.53980000       0.78480000
H        0.49280000      -0.27710000       2.19040000
H       -1.43340000      -3.03910000      -0.35180000
H       -2.31330000      -0.45220000      -0.29440000
