16
Properties=species:S:1:pos:R:3 gdb_123801=T pbc="F F F"
C       -0.33510000       1.18140000      -0.15190000
C        1.11810000       1.10200000       0.24260000
C        0.33300000      -0.15870000       0.00550000
N        0.00140000      -0.95110000       1.15180000
C       -1.10370000      -1.74900000       1.15770000
N       -2.07820000      -1.67540000       0.27480000
O       -2.98630000      -2.65950000       0.74150000
C       -2.43220000      -3.19170000       1.82270000
N       -1.28230000      -2.69870000       2.15000000
H       -1.04870000       1.46470000       0.61170000
H       -0.58850000       1.50080000      -1.15580000
H        1.87510000       1.37010000      -0.48530000
H        1.37110000       1.34160000       1.26940000
H        0.53460000      -0.71510000      -0.90860000
H        0.76320000      -1.31340000       1.70550000
H       -2.98190000      -3.97540000       2.32440000
