21
Properties=species:S:1:pos:R:3 gdb_76890=T pbc="F F F"
O        0.02430000       1.41970000       0.22680000
C       -0.04990000       0.02310000       0.06110000
C       -1.47740000      -0.55650000      -0.10810000
C       -2.20450000       0.22190000      -1.22440000
C       -1.48690000      -0.26260000      -2.52480000
C       -0.42200000      -1.25060000      -1.99580000
C       -1.15620000      -1.89810000      -0.80030000
C        0.67670000      -0.46340000      -1.25980000
O        1.14320000       0.63680000      -2.04050000
H        0.26070000       1.77110000      -0.64380000
H        0.42280000      -0.43450000       0.93880000
H       -2.03210000      -0.61220000       0.83020000
H       -3.26920000      -0.02790000      -1.23930000
H       -2.12300000       1.29980000      -1.06920000
H       -2.17960000      -0.78500000      -3.19100000
H       -1.03740000       0.55270000      -3.09370000
H       -0.02990000      -1.92990000      -2.75500000
H       -0.51930000      -2.55860000      -0.20130000
H       -2.04780000      -2.45550000      -1.10160000
H        1.51890000      -1.12210000      -1.01910000
H        2.02470000       0.86850000      -1.73280000
