17
Properties=species:S:1:pos:R:3 gdb_56777=T pbc="F F F"
O        0.13190000       1.55190000      -0.03020000
C        0.05910000       0.12720000       0.02710000
C        0.59680000      -0.48270000      -1.19450000
C        1.09040000      -0.95190000      -2.18530000
C        0.74080000      -0.42900000       1.25340000
C        0.25780000      -1.64410000       2.02040000
C        0.39290000      -0.32690000       2.72060000
O        1.74730000      -0.09040000       3.10620000
C        2.15840000      -0.09340000       1.71110000
H        0.94490000       1.78620000      -0.48950000
H       -1.01130000      -0.10540000       0.09910000
H        1.50680000      -1.37530000      -3.06620000
H       -0.75940000      -1.94720000       1.78800000
H        0.93770000      -2.45650000       2.26170000
H       -0.39130000       0.19510000       3.25630000
H        2.95060000      -0.82220000       1.50670000
H        2.48150000       0.90970000       1.41110000
