18
Properties=species:S:1:pos:R:3 gdb_45171=T pbc="F F F"
N       -0.06700000       1.27070000      -0.11470000
C       -0.04200000       0.01370000       0.01500000
O        1.12340000      -0.71440000       0.06860000
C        0.93690000      -2.01880000       0.63890000
C        0.17470000      -1.87480000       1.98110000
C       -1.10710000      -1.99580000       1.14190000
C       -0.31880000      -2.76100000       0.03120000
C       -1.03160000      -1.95610000      -1.05810000
C       -1.26060000      -0.86280000       0.03860000
H        0.88690000       1.63920000      -0.13400000
H        1.90920000      -2.50850000       0.60480000
H        0.30720000      -2.75610000       2.61560000
H        0.36950000      -0.96790000       2.56080000
H       -2.04580000      -2.34330000       1.57340000
H       -0.22840000      -3.84710000      -0.01310000
H       -0.48540000      -1.66340000      -1.95850000
H       -1.97270000      -2.43630000      -1.33850000
H       -2.16900000      -0.26550000       0.01870000
