22
Properties=species:S:1:pos:R:3 gdb_78599=T pbc="F F F"
C       -0.19380000       1.59720000      -0.00770000
C       -0.05380000       0.08950000      -0.08790000
C        0.89440000      -0.57490000      -1.08660000
C        2.09800000      -0.24590000      -0.15900000
C        2.60430000      -1.69160000      -0.11640000
C        3.38730000      -2.16730000       1.09770000
C        1.06570000      -1.77800000      -0.09990000
C        0.19670000      -2.98940000       0.07390000
N        0.96390000      -0.54510000       0.86450000
H        0.76590000       2.10880000      -0.12510000
H       -0.86670000       1.96180000      -0.79150000
H       -0.61590000       1.88870000       0.95980000
H       -1.03790000      -0.38480000       0.01450000
H        0.87820000      -0.60540000      -2.18290000
H        2.66760000       0.68240000      -0.09810000
H        3.05360000      -2.03230000      -1.05740000
H        2.92020000      -1.81270000       2.02030000
H        3.43490000      -3.26140000       1.13370000
H        4.41750000      -1.79570000       1.06960000
H        0.43680000      -3.50210000       1.01090000
H       -0.86570000      -2.72700000       0.09470000
H        0.35450000      -3.69380000      -0.75020000
