21
Properties=species:S:1:pos:R:3 gdb_97671=T pbc="F F F"
C        0.10220000       1.55340000       0.52510000
C       -0.01820000       0.24900000      -0.28390000
C       -1.35500000      -0.33420000      -0.23770000
C       -2.46270000      -0.80570000      -0.17990000
C       -3.80660000      -1.37330000      -0.11910000
C       -4.69170000      -0.61500000       0.86550000
C       -4.44260000      -1.69330000      -1.50780000
C       -4.28870000      -3.16570000      -1.09100000
O       -3.77830000      -2.79960000       0.20640000
H        1.12010000       1.94920000       0.46150000
H       -0.58690000       2.31210000       0.14390000
H       -0.13610000       1.38040000       1.57800000
H        0.26280000       0.43720000      -1.32820000
H        0.70540000      -0.48500000       0.09350000
H       -4.77640000       0.43610000       0.57270000
H       -5.68990000      -1.06120000       0.89160000
H       -4.26050000      -0.66120000       1.86920000
H       -5.47120000      -1.34250000      -1.60910000
H       -3.85890000      -1.37340000      -2.37020000
H       -5.21360000      -3.74930000      -1.01560000
H       -3.55470000      -3.73890000      -1.67080000
