14
Properties=species:S:1:pos:R:3 gdb_2055=T pbc="F F F"
O        0.02490000      -0.07430000       0.02150000
C       -0.02350000       1.13800000       0.03580000
C       -1.31720000       1.94340000       0.07230000
C       -1.19740000       3.28400000       0.81800000
C        0.06060000       4.00730000       0.41240000
C        1.12910000       3.31000000       0.02430000
N        1.11650000       1.91170000      -0.04830000
H       -1.58320000       2.13480000      -0.97650000
H       -2.09440000       1.30110000       0.48990000
H       -2.08400000       3.89420000       0.61780000
H       -1.19190000       3.10860000       1.90450000
H        0.11140000       5.08760000       0.46250000
H        2.07140000       3.76850000      -0.25200000
H        1.97870000       1.40190000      -0.16630000
