12
Properties=species:S:1:pos:R:3 gdb_4691=T pbc="F F F"
N        0.13900000       1.32140000       0.16700000
C       -0.05950000      -0.03230000       0.05440000
C       -1.18700000      -0.81630000       0.01630000
C       -0.71910000      -2.15710000      -0.01980000
C        0.64640000      -2.10910000      -0.00200000
O        1.05590000      -0.78500000       0.04350000
C        1.63990000      -3.10030000      -0.02670000
N        2.44790000      -3.93310000      -0.04940000
H        1.03890000       1.64000000      -0.16390000
H       -0.62490000       1.88960000      -0.16630000
H       -2.20900000      -0.47490000       0.01760000
H       -1.31320000      -3.05660000      -0.05660000
