21
Properties=species:S:1:pos:R:3 gdb_104924=T pbc="F F F"
C       -0.06360000       1.46010000      -0.06310000
C        0.05940000      -0.05310000       0.03230000
C       -1.10540000      -0.77200000      -0.62690000
C        1.42050000      -0.67060000      -0.03670000
C        0.70370000      -0.66070000       1.30870000
C        1.21710000       0.20790000       2.44130000
O        2.22920000      -0.46110000       3.18430000
C        0.19120000      -1.97230000       1.80720000
O        0.07740000      -2.98160000       1.15090000
H        0.82380000       1.98720000       0.29220000
H       -0.21400000       1.74440000      -1.11080000
H       -0.92770000       1.82700000       0.50200000
H       -1.14440000      -0.50000000      -1.68790000
H       -1.01550000      -1.85540000      -0.55510000
H       -2.05820000      -0.47180000      -0.17580000
H        1.51680000      -1.64470000      -0.50510000
H        2.27980000      -0.01490000      -0.14680000
H        1.57140000       1.17820000       2.07360000
H        0.41700000       0.40760000       3.16380000
H        2.92710000      -0.70580000       2.56680000
H       -0.09600000      -1.96260000       2.88090000
