17
Properties=species:S:1:pos:R:3 gdb_30061=T pbc="F F F"
C        1.02390000       0.88620000       0.61350000
N        0.23330000      -0.26740000       0.20960000
C        0.28810000      -0.86030000      -1.03280000
C       -0.60500000      -1.89730000      -0.99890000
N       -1.21440000      -1.95880000       0.22660000
C       -0.68920000      -0.97610000       0.93550000
C       -1.08680000      -0.74870000       2.34020000
C       -0.16700000      -0.43810000       3.44790000
O       -1.01360000       0.57430000       2.89850000
H        2.02420000       0.58520000       0.94390000
H        1.12970000       1.56500000      -0.23590000
H        0.51080000       1.40460000       1.42190000
H        0.93490000      -0.47670000      -1.80520000
H       -0.85060000      -2.59110000      -1.78840000
H       -1.99750000      -1.29350000       2.57940000
H       -0.41950000      -0.76020000       4.45680000
H        0.89700000      -0.31850000       3.25070000
