18
Properties=species:S:1:pos:R:3 gdb_127249=T pbc="F F F"
C       -0.00710000       1.39580000       0.11070000
N       -0.02550000      -0.04160000      -0.00720000
C       -0.06960000      -0.78900000      -1.13390000
C       -0.02590000      -2.11420000      -0.75270000
C       -0.09290000      -3.32030000      -1.63000000
O        0.02330000      -2.90020000      -2.98240000
C        0.05280000      -2.05840000       0.66150000
N        0.04300000      -3.14370000       1.54500000
N        0.06140000      -0.80660000       1.11120000
H        0.95450000       1.74560000       0.50110000
H       -0.17190000       1.83270000      -0.87600000
H       -0.79900000       1.72850000       0.78770000
H       -0.12890000      -0.34630000      -2.11470000
H        0.71440000      -4.02900000      -1.36910000
H       -1.04090000      -3.86030000      -1.46490000
H       -0.14090000      -3.66180000      -3.54530000
H        0.67120000      -3.88640000       1.26310000
H        0.26980000      -2.84300000       2.48540000
