15
Properties=species:S:1:pos:R:3 gdb_98719=T pbc="F F F"
C       -0.15000000       1.53240000       0.69480000
O       -0.17950000       0.09820000       0.72050000
C       -0.98400000      -0.47340000      -0.19690000
O       -1.66050000       0.12470000      -0.98820000
C       -0.88540000      -1.96940000      -0.07700000
O       -1.93340000      -2.72030000      -0.66150000
C       -0.65040000      -2.81010000      -1.28400000
C       -0.48800000      -2.26960000      -2.60450000
C       -0.30820000      -1.87590000      -3.72490000
H        0.54140000       1.82920000       1.48300000
H        0.19720000       1.89110000      -0.27710000
H       -1.14660000       1.93860000       0.88430000
H       -0.50860000      -2.33390000       0.87680000
H       -0.14100000      -3.75810000      -1.10980000
H       -0.16790000      -1.50720000      -4.71120000
