18
Properties=species:S:1:pos:R:3 gdb_55040=T pbc="F F F"
N       -0.14470000       1.12070000      -0.20410000
C       -0.09610000      -0.24930000      -0.05470000
O        0.84170000      -0.93080000      -0.40840000
N       -1.23400000      -0.76700000       0.58680000
C       -2.59760000      -0.61310000       0.09970000
C       -1.92720000      -1.95730000       0.13600000
C       -1.55740000      -2.65060000      -1.13570000
C       -0.94100000      -3.99500000      -1.08490000
N       -2.33110000      -3.83500000      -1.55060000
H        0.74600000       1.55010000      -0.39960000
H       -0.76500000       1.64380000       0.39330000
H       -3.34430000      -0.34480000       0.84300000
H       -2.73550000      -0.15900000      -0.87940000
H       -2.19730000      -2.63680000       0.94570000
H       -1.28940000      -1.99070000      -1.95630000
H       -0.22980000      -4.29070000      -1.84960000
H       -0.76300000      -4.43280000      -0.10580000
H       -2.97730000      -4.10440000      -0.81120000
