13
Properties=species:S:1:pos:R:3 gdb_125553=T pbc="F F F"
C       -0.01610000       1.40430000       0.04070000
C       -0.01240000      -0.07200000      -0.04930000
N       -0.19840000      -0.79940000      -1.10750000
N       -0.08770000      -2.06920000      -0.60620000
N       -0.15920000      -3.33020000      -1.08420000
C        0.05910000      -4.01150000       0.04400000
N        0.26290000      -3.28470000       1.19720000
C        0.15610000      -2.07530000       0.70910000
O        0.21380000      -0.78840000       1.11650000
H        0.94720000       1.77110000       0.40830000
H       -0.20670000       1.81910000      -0.94930000
H       -0.79150000       1.74680000       0.73290000
H        0.07350000      -5.09070000       0.04190000
