19
Properties=species:S:1:pos:R:3 gdb_75549=T pbc="F F F"
C       -0.03820000       1.51130000       0.06030000
C        0.02570000       0.01040000       0.00110000
C       -0.05900000      -0.68700000      -1.13560000
C        0.01550000      -2.18700000      -1.19430000
O        0.43310000      -2.78090000       0.02100000
C       -0.21590000      -2.21580000       1.14290000
C        0.14680000      -0.74800000       1.28290000
C        1.02530000      -0.30400000       2.38040000
O       -0.38970000      -0.12300000       2.46270000
H        0.90630000       1.94130000       0.41660000
H       -0.24240000       1.93140000      -0.92730000
H       -0.81580000       1.83990000       0.75640000
H       -0.19410000      -0.17580000      -2.08620000
H       -0.96550000      -2.59490000      -1.50380000
H        0.74080000      -2.50560000      -1.95240000
H       -1.31150000      -2.30360000       1.05420000
H        0.10170000      -2.78650000       2.01910000
H        1.44450000      -1.04880000       3.05630000
H        1.60700000       0.61080000       2.28240000
