18
Properties=species:S:1:pos:R:3 gdb_30138=T pbc="F F F"
C       -0.08410000       1.50100000      -0.24910000
C       -0.03800000       0.02190000       0.02160000
O        1.23490000      -0.62800000      -0.06170000
C        0.59390000      -0.58180000       1.21940000
C        1.27350000       0.18310000       2.28550000
C        2.44190000       0.90390000       2.15630000
N        2.74310000       1.43910000       3.38200000
C        1.79060000       1.07300000       4.29840000
C        0.86600000       0.29000000       3.65000000
H        0.66800000       2.03170000       0.33830000
H        0.09400000       1.70090000      -1.31110000
H       -1.07220000       1.89950000       0.00610000
H       -0.84370000      -0.55460000      -0.43960000
H        0.18580000      -1.54270000       1.54130000
H        3.07930000       1.04500000       1.29970000
H        3.55180000       2.00070000       3.58150000
H        1.85100000       1.39740000       5.32470000
H       -0.00960000      -0.15730000       4.09580000
