18
Properties=species:S:1:pos:R:3 gdb_73090=T pbc="F F F"
C       -0.42040000       1.45750000       0.37220000
C        0.10690000       0.09040000      -0.00640000
C       -0.96190000      -0.81840000      -0.63100000
O       -1.65070000      -1.59770000       0.36320000
C       -0.84440000      -2.22610000       1.25310000
N        0.34440000      -1.94040000       1.58270000
C        0.90440000      -0.72390000       1.04270000
C        1.98480000      -0.80790000      -0.05830000
O        1.27450000       0.16320000      -0.86540000
H        0.34500000       2.04340000       0.88810000
H       -0.72910000       2.00730000      -0.52370000
H       -1.29120000       1.35900000       1.02990000
H       -1.73730000      -0.25710000      -1.15630000
H       -0.47860000      -1.50230000      -1.33750000
H       -1.36320000      -3.06850000       1.70750000
H        1.23180000      -0.10150000       1.88090000
H        2.99340000      -0.46810000       0.19580000
H        2.04000000      -1.79100000      -0.54200000
