20
Properties=species:S:1:pos:R:3 gdb_99605=T pbc="F F F"
C        0.66810000       1.37080000       0.62750000
C        1.00350000      -0.08610000       0.30190000
C        0.42440000      -0.54480000      -1.05580000
C        1.07930000       0.15670000      -2.16600000
N        1.61160000       0.70450000      -3.03380000
C        0.46900000      -2.06600000      -1.30720000
C       -0.28900000      -2.52750000      -2.53190000
C        1.56260000      -2.88510000      -0.76750000
O        0.27290000      -2.86330000      -0.13870000
H        1.06840000       2.05280000      -0.12920000
H       -0.41500000       1.52640000       0.68200000
H        1.09400000       1.65520000       1.59380000
H        2.09020000      -0.21930000       0.29540000
H        0.59780000      -0.75680000       1.06370000
H       -0.63670000      -0.25730000      -1.08160000
H        0.12380000      -2.07800000      -3.43990000
H       -0.23750000      -3.61470000      -2.62190000
H       -1.34380000      -2.24010000      -2.45990000
H        1.81980000      -3.81750000      -1.26690000
H        2.36680000      -2.43160000      -0.19340000
