15
Properties=species:S:1:pos:R:3 gdb_44273=T pbc="F F F"
N       -0.04730000       1.30810000      -0.21360000
C        0.02170000       0.06950000       0.01860000
O        1.20790000      -0.57690000       0.21870000
C        1.12890000      -1.95920000       0.46720000
C        0.04270000      -2.57150000       1.29020000
C        0.14630000      -2.84930000      -0.22160000
C       -1.19360000      -2.08660000      -0.42460000
C       -1.29340000      -1.81910000       1.03150000
N       -1.15430000      -0.71080000       0.08140000
H        0.89380000       1.70580000      -0.22220000
H        2.12890000      -2.35260000       0.60800000
H        0.22120000      -3.22740000       2.13150000
H        0.41830000      -3.75580000      -0.74500000
H       -1.94770000      -2.33430000      -1.16040000
H       -2.14380000      -1.80870000       1.70090000
