16
Properties=species:S:1:pos:R:3 gdb_125234=T pbc="F F F"
C        0.04130000       1.49530000       0.00610000
C       -0.03540000      -0.00620000       0.00210000
C       -1.19230000      -0.72140000       0.18490000
C       -1.16800000      -2.15110000       0.17750000
O       -2.12850000      -2.91400000       0.30320000
C        0.20020000      -2.71790000      -0.02160000
N        0.25300000      -4.07320000       0.02390000
N        1.28510000      -2.01600000      -0.21220000
N        1.12440000      -0.66670000      -0.19040000
H        0.61480000       1.86040000       0.86560000
H        0.52510000       1.87200000      -0.90190000
H       -0.96020000       1.92360000       0.06050000
H       -2.13580000      -0.21080000       0.32930000
H       -0.65380000      -4.51590000      -0.02040000
H        1.05940000      -4.54820000      -0.34310000
H        1.98420000      -0.16270000      -0.33350000
