17
Properties=species:S:1:pos:R:3 gdb_85386=T pbc="F F F"
C       -0.05580000       1.55420000       0.00810000
C        0.05190000       0.03190000       0.00600000
C        0.70340000      -0.50480000      -1.27090000
C        1.01350000      -1.99050000      -1.19190000
O        1.06500000      -2.72600000      -2.15040000
N        1.27260000      -2.44440000       0.09110000
C        1.29460000      -1.70170000       1.28190000
O        1.68660000      -2.18720000       2.32090000
N        0.85800000      -0.41030000       1.14290000
H        0.93510000       2.01210000      -0.07000000
H       -0.66510000       1.89340000      -0.83410000
H       -0.52970000       1.91310000       0.92800000
H       -0.96370000      -0.39050000       0.07910000
H        0.06940000      -0.34060000      -2.14390000
H        1.65310000       0.01810000      -1.44480000
H        1.57040000      -3.40590000       0.18540000
H        0.73180000       0.05800000       2.02790000
