18
Properties=species:S:1:pos:R:3 gdb_24583=T pbc="F F F"
C       -0.05220000       1.51580000      -0.12000000
C        1.49830000       1.50740000      -0.07840000
C        1.43610000       0.09480000       0.58900000
C       -0.02900000      -0.02510000       0.05600000
C        2.43310000      -0.93080000       0.22360000
C        3.29360000      -1.72810000       0.90660000
N        4.01180000      -2.52190000       0.01820000
C        3.56040000      -2.17400000      -1.14020000
O        2.60310000      -1.21760000      -1.11210000
H       -0.47780000       2.01660000       0.75430000
H       -0.53140000       1.91480000      -1.01610000
H        1.92950000       1.44150000      -1.08060000
H        2.00840000       2.29870000       0.47540000
H        1.43580000       0.19070000       1.67850000
H       -0.76510000      -0.48430000       0.71960000
H       -0.04780000      -0.54260000      -0.90650000
H        3.44820000      -1.78850000       1.97230000
H        3.84660000      -2.54460000      -2.11210000
