16
Properties=species:S:1:pos:R:3 gdb_4506=T pbc="F F F"
C        0.00900000       1.45350000       0.00460000
C        0.02740000      -0.03770000      -0.03140000
N        0.02750000      -0.78450000      -1.12190000
C        0.04800000      -2.07720000      -0.67860000
O        0.05380000      -3.12070000      -1.54470000
C        0.06100000      -2.15600000       0.68920000
C        0.08410000      -3.30820000       1.63080000
N        0.04740000      -0.81830000       1.08280000
H        0.89570000       1.86330000       0.50280000
H       -0.01100000       1.82730000      -1.01990000
H       -0.87240000       1.84080000       0.52940000
H        0.04060000      -2.73240000      -2.42730000
H        0.97570000      -3.31210000       2.27150000
H       -0.79330000      -3.33170000       2.29060000
H        0.08810000      -4.23690000       1.05570000
H        0.05160000      -0.49170000       2.03450000
