17
Properties=species:S:1:pos:R:3 gdb_34332=T pbc="F F F"
C       -0.01480000      -1.21980000       0.01240000
C       -0.00320000      -0.01600000       0.00200000
C        0.00380000       1.41890000       0.00390000
C       -0.46130000       2.20510000      -1.27080000
C        0.87220000       3.01270000      -1.27390000
C        1.34480000       2.26090000       0.00100000
C        0.91950000       2.86160000       1.35970000
O       -0.35170000       3.50540000       1.18470000
C       -0.33440000       2.09280000       1.37380000
H       -0.02470000      -2.28150000       0.01400000
H       -0.58680000       1.55090000      -2.13480000
H       -1.36660000       2.79540000      -1.12510000
H        1.50070000       2.81050000      -2.14350000
H        0.76290000       4.09170000      -1.15540000
H        2.30810000       1.75290000      -0.00330000
H        1.54340000       3.22810000       2.16690000
H       -0.93310000       1.68210000       2.17910000
