21
Properties=species:S:1:pos:R:3 gdb_32416=T pbc="F F F"
C        0.11390000       1.56180000       0.12880000
C       -0.02920000       0.04130000      -0.06160000
C        0.69000000      -0.48170000      -1.27090000
C        0.12430000      -0.88150000      -2.45870000
N        1.13390000      -1.26550000      -3.30930000
C        2.35350000      -1.13920000      -2.68770000
C        3.64430000      -1.49810000      -3.34030000
C        2.10900000      -0.64650000      -1.42170000
N        3.13950000      -0.39040000      -0.46540000
H        1.16570000       1.84590000       0.23690000
H       -0.28620000       2.10020000      -0.73590000
H       -0.41990000       1.90250000       1.02250000
H        0.33970000      -0.46330000       0.84240000
H       -1.09260000      -0.21520000      -0.13250000
H       -0.90950000      -0.92780000      -2.76380000
H        1.00130000      -1.61300000      -4.24240000
H        3.90800000      -0.81930000      -4.16210000
H        4.43720000      -1.44230000      -2.59100000
H        3.63110000      -2.51600000      -3.75010000
H        3.36460000       0.59920000      -0.41380000
H        2.84380000      -0.66480000       0.46630000
