20
Properties=species:S:1:pos:R:3 gdb_113414=T pbc="F F F"
C        0.55910000       1.56980000       0.33490000
C       -0.08960000       0.22230000      -0.00150000
C        0.45000000      -0.38700000      -1.27950000
C        1.75150000      -1.19130000      -1.27850000
C        0.43980000      -1.85700000      -1.50560000
C       -0.26360000      -3.00100000      -0.78230000
C       -0.55240000      -3.48120000      -2.19150000
N       -1.15090000      -4.46330000      -2.68900000
O        0.09680000      -2.42110000      -2.79860000
H        1.64250000       1.46580000       0.45380000
H        0.38210000       2.30150000      -0.46070000
H        0.15460000       1.98220000       1.26410000
H        0.06980000      -0.47810000       0.82870000
H       -1.17650000       0.34830000      -0.08960000
H        0.28820000       0.20600000      -2.17720000
H        2.41410000      -1.08730000      -2.13070000
H        2.25170000      -1.36160000      -0.32930000
H        0.37340000      -3.66590000      -0.19620000
H       -1.14920000      -2.73310000      -0.20260000
H       -1.12800000      -4.43250000      -3.70970000
