22
Properties=species:S:1:pos:R:3 gdb_99665=T pbc="F F F"
C       -0.05440000       1.58310000       0.05030000
C       -0.04430000       0.05760000      -0.06400000
C        0.78250000      -0.47540000      -1.25640000
C        2.19150000      -0.08170000      -1.13530000
N        3.30450000       0.21280000      -1.02760000
C        0.67510000      -2.00030000      -1.40880000
C       -0.69740000      -2.60430000      -1.82100000
C        0.06840000      -3.62310000      -2.70820000
C        1.30570000      -2.68660000      -2.65150000
H        0.95780000       1.97650000       0.18480000
H       -0.47730000       2.04550000      -0.84830000
H       -0.65680000       1.90360000       0.90510000
H        0.34610000      -0.38650000       0.85910000
H       -1.06690000      -0.31690000      -0.18520000
H        0.40100000      -0.01200000      -2.17760000
H        1.03880000      -2.47510000      -0.49100000
H       -1.34350000      -2.99260000      -1.03050000
H       -1.27530000      -1.89840000      -2.42750000
H        0.24760000      -4.56390000      -2.18060000
H       -0.35010000      -3.85100000      -3.69060000
H        1.33590000      -2.00580000      -3.50860000
H        2.29260000      -3.13800000      -2.53410000
