21
Properties=species:S:1:pos:R:3 gdb_115580=T pbc="F F F"
C       -0.30600000       1.65030000      -0.01260000
C       -0.12550000       0.13960000       0.09150000
C       -1.38450000      -0.59980000      -0.35660000
O       -1.62610000      -0.27510000      -1.71760000
C        1.14430000      -0.47960000      -0.54030000
O        1.44570000      -1.20670000       0.67510000
C        0.42410000      -0.47850000       1.40840000
C        1.09060000       0.41020000       2.44820000
O        1.86330000      -0.38830000       3.32450000
H        0.60980000       2.19240000       0.23630000
H       -0.59600000       1.91760000      -1.03200000
H       -1.09910000       1.99900000       0.65880000
H       -1.23350000      -1.68260000      -0.22810000
H       -2.23160000      -0.30190000       0.28350000
H       -2.39860000      -0.76390000      -2.01520000
H        0.98610000      -1.14680000      -1.39320000
H        1.93120000       0.24400000      -0.78860000
H       -0.25250000      -1.17700000       1.91990000
H        1.71190000       1.17380000       1.95580000
H        0.34010000       0.92770000       3.05600000
H        2.41650000      -0.93580000       2.75260000
