17
Properties=species:S:1:pos:R:3 gdb_105948=T pbc="F F F"
O        0.53570000       0.16070000      -0.90130000
C       -0.14370000       0.43520000       0.31630000
C       -1.48680000      -0.20510000       0.23800000
C       -2.49660000      -0.27430000      -0.88270000
C       -1.91970000      -1.55910000      -0.27140000
C       -2.97820000      -1.75660000       0.84870000
O       -4.27430000      -1.42640000       0.30150000
C       -3.71550000      -0.11450000       0.06740000
C       -2.68770000      -0.26950000       1.23590000
H        1.40450000       0.57060000      -0.85810000
H        0.41170000       0.03660000       1.18240000
H       -0.25490000       1.52130000       0.47560000
H       -2.38270000      -0.02150000      -1.92710000
H       -1.36650000      -2.28470000      -0.85030000
H       -2.97200000      -2.63080000       1.49750000
H       -4.45490000       0.67200000      -0.07390000
H       -2.78220000       0.16100000       2.22990000
