16
Properties=species:S:1:pos:R:3 gdb_17251=T pbc="F F F"
O        0.00280000       1.35240000      -0.37530000
C       -0.07680000       0.03600000       0.14810000
C       -1.45130000      -0.53090000       0.03970000
O       -2.48310000       0.05530000       0.84770000
C       -3.30400000      -1.08990000       0.47850000
C       -3.61620000      -0.84560000      -1.02050000
C       -2.12170000      -1.08680000      -1.23070000
C       -2.02390000      -1.90720000       0.05740000
H       -0.67310000       1.87240000       0.07330000
H        0.61880000      -0.57890000      -0.43270000
H        0.24640000       0.00440000       1.20020000
H       -4.05960000      -1.34000000       1.21990000
H       -4.21660000      -1.65360000      -1.44630000
H       -4.04310000       0.12960000      -1.27440000
H       -1.57530000      -1.22460000      -2.15480000
H       -1.62900000      -2.88650000       0.28920000
