17
Properties=species:S:1:pos:R:3 gdb_132731=T pbc="F F F"
C        0.00130000       1.52870000       0.03090000
C        0.00450000       0.02220000       0.01810000
C        0.05630000      -0.65920000      -1.21140000
N        0.15550000       0.01080000      -2.43240000
C        0.06650000      -2.05690000      -1.18790000
F        0.10500000      -2.69090000      -2.37920000
C        0.03230000      -2.79130000      -0.01900000
C       -0.01940000      -2.11010000       1.19550000
C       -0.03410000      -0.71860000       1.20080000
H        0.86260000       1.93570000      -0.51240000
H       -0.89960000       1.94230000      -0.44420000
H        0.03240000       1.91230000       1.05320000
H       -0.33210000       0.89380000      -2.47220000
H       -0.06300000      -0.57460000      -3.22590000
H        0.04200000      -3.87340000      -0.07600000
H       -0.04600000      -2.66320000       2.12710000
H       -0.07300000      -0.18560000       2.14590000
