19
Properties=species:S:1:pos:R:3 gdb_88806=T pbc="F F F"
C       -0.37680000       1.40210000      -0.10950000
N        0.00700000       0.00320000      -0.00190000
C        1.39170000      -0.34540000      -0.29250000
C        0.86490000      -0.44630000       1.09910000
C        1.38400000       0.45900000       2.18470000
C        0.59160000       0.49840000       3.53110000
N        1.78330000      -0.06010000       4.17380000
C        2.54910000      -0.13480000       3.03680000
O        3.66640000      -0.51790000       2.82220000
H        0.42660000       2.12230000       0.11300000
H       -0.71260000       1.59050000      -1.13420000
H       -1.21710000       1.60400000       0.56310000
H        1.55200000      -1.23750000      -0.89170000
H        2.09070000       0.46660000      -0.49290000
H        0.58970000      -1.43640000       1.46280000
H        1.63760000       1.45160000       1.80850000
H        0.31530000       1.49730000       3.88290000
H       -0.28410000      -0.15810000       3.56360000
H        1.98810000      -0.29720000       5.13300000
