17
Properties=species:S:1:pos:R:3 gdb_98614=T pbc="F F F"
O       -0.48470000       1.54010000      -1.26080000
C       -0.62500000       0.15410000      -1.27760000
C       -1.51260000      -0.33370000      -0.14010000
O       -1.93010000       0.47670000       0.66430000
C       -1.80360000      -1.81080000      -0.10490000
C       -2.39430000      -2.54140000       1.13350000
C       -3.77350000      -1.87620000       0.91310000
C       -3.22790000      -2.38930000      -0.43740000
O       -2.81600000      -3.63990000       0.22620000
H       -0.95900000       1.83130000      -0.46500000
H       -1.05740000      -0.19540000      -2.23050000
H        0.34970000      -0.35660000      -1.18240000
H       -1.02270000      -2.38700000      -0.60710000
H       -1.88540000      -2.81500000       2.05710000
H       -4.61540000      -2.45180000       1.29800000
H       -3.85570000      -0.80350000       1.07680000
H       -3.70650000      -2.46550000      -1.41390000
