15
Properties=species:S:1:pos:R:3 gdb_16634=T pbc="F F F"
C       -0.06910000       1.39270000       0.05460000
N       -0.03150000      -0.04720000       0.17440000
C       -1.17870000      -0.89550000       0.11680000
C       -1.36440000      -1.69760000      -1.16250000
C       -0.57470000      -2.26150000      -0.00860000
O        0.82660000      -2.10310000      -0.02550000
C        1.13850000      -0.76140000       0.04010000
O        2.26040000      -0.34070000      -0.02940000
H        0.96040000       1.75200000       0.09010000
H       -0.52720000       1.70690000      -0.89190000
H       -0.63480000       1.83780000       0.88060000
H       -2.01090000      -0.65110000       0.76780000
H       -2.34090000      -2.13750000      -1.33480000
H       -0.82910000      -1.38060000      -2.05110000
H       -0.89640000      -3.13670000       0.53990000
