17
Properties=species:S:1:pos:R:3 gdb_43538=T pbc="F F F"
O        0.04370000       0.20420000      -1.05160000
C       -0.02150000       1.20190000      -0.38970000
C       -1.15410000       1.90950000       0.38030000
C       -0.14800000       3.08130000       0.69480000
C        0.05330000       3.42040000       2.08880000
C        0.24400000       3.69260000       3.24480000
C        0.96980000       2.25610000      -0.00140000
C        2.37730000       1.98620000       0.48230000
C        2.16390000       2.72400000      -0.79890000
H       -2.03020000       2.17880000      -0.21380000
H       -1.47710000       1.35730000       1.26620000
H       -0.39850000       3.98050000       0.12300000
H        0.39750000       3.93660000       4.26690000
H        2.69140000       2.54380000       1.35830000
H        2.71470000       0.95630000       0.43910000
H        2.35000000       2.20620000      -1.73420000
H        2.35120000       3.79260000      -0.81680000
