14
Properties=species:S:1:pos:R:3 gdb_131930=T pbc="F F F"
C       -0.03230000       1.46430000       0.01540000
C        0.00330000      -0.02490000      -0.04550000
N       -0.02430000      -0.75650000      -1.13530000
C        0.02710000      -2.04590000      -0.69660000
C        0.08700000      -2.12890000       0.67030000
N        0.07110000      -0.82290000       1.07570000
N        0.01820000      -3.17720000      -1.59180000
O       -0.03660000      -2.96610000      -2.79220000
O        0.06800000      -4.28680000      -1.06030000
H        0.86200000       1.87080000       0.50060000
H       -0.08140000       1.85180000      -1.00240000
H       -0.90630000       1.82560000       0.56860000
H        0.13680000      -2.96730000       1.34150000
H        0.10370000      -0.50510000       2.03140000
