18
Properties=species:S:1:pos:R:3 gdb_69973=T pbc="F F F"
C        0.00510000       1.56140000       0.05610000
C        0.11400000       0.07020000       0.00920000
N       -0.81790000      -0.83440000       0.70780000
C        0.63860000      -0.94180000       0.98380000
C        1.26260000      -1.77480000      -0.16330000
O        0.45990000      -2.83180000      -0.71820000
C       -0.11890000      -1.95220000      -1.71520000
C        0.69900000      -0.74790000      -1.17960000
O        1.44670000       0.05140000      -2.03700000
H        0.90360000       2.02550000      -0.35870000
H       -0.85380000       1.91470000      -0.52640000
H       -0.12090000       1.90800000       1.08760000
H       -1.22470000      -0.30830000       1.48120000
H        1.01580000      -0.81620000       1.99230000
H        2.32250000      -2.02160000      -0.05890000
H        0.17280000      -2.25410000      -2.73180000
H       -1.20680000      -1.89290000      -1.63320000
H        1.94230000      -0.51820000      -2.63520000
