16
Properties=species:S:1:pos:R:3 gdb_34455=T pbc="F F F"
C        0.02920000      -1.12950000      -0.00860000
C        0.00860000       0.07200000      -0.03330000
C       -0.06700000       1.50140000      -0.03840000
C       -1.29180000       2.18080000       0.58720000
O       -1.43160000       3.42760000      -0.09610000
C       -0.17220000       3.69180000      -0.68680000
C        0.96510000       3.65480000       0.36360000
N        1.26600000       2.21420000       0.04210000
C        0.39250000       2.33650000      -1.17390000
H        0.06360000      -2.19060000       0.00900000
H       -2.19310000       1.58170000       0.42960000
H       -1.16150000       2.33480000       1.66650000
H       -0.26480000       4.54290000      -1.35940000
H        1.83740000       4.24760000       0.07860000
H        0.69600000       3.87020000       1.40200000
H        0.67030000       1.98500000      -2.15940000
