23
Properties=species:S:1:pos:R:3 gdb_106778=T pbc="F F F"
C       -1.14120000      -1.09920000      -0.38400000
O        0.11080000      -0.50850000      -0.11530000
C        0.73990000      -0.84510000       1.06920000
C        0.10400000      -1.41940000       2.30080000
C        1.28820000      -2.15160000       1.67980000
C        1.23630000      -3.59950000       1.28250000
C        2.56600000      -1.40890000       2.08830000
C        2.02240000      -0.09320000       1.43350000
C        2.83600000       0.39200000       0.23950000
H       -1.89250000      -0.83020000       0.37090000
H       -1.46330000      -0.71640000      -1.35530000
H       -1.08050000      -2.19520000      -0.44370000
H        0.18690000      -0.92070000       3.26720000
H       -0.84630000      -1.92280000       2.15120000
H        0.24670000      -3.88600000       0.91240000
H        1.96490000      -3.82310000       0.49460000
H        1.46600000      -4.25020000       2.13640000
H        2.77120000      -1.37050000       3.16440000
H        3.45900000      -1.77740000       1.57410000
H        1.86130000       0.73530000       2.13490000
H        3.00950000      -0.41900000      -0.47570000
H        2.31710000       1.19490000      -0.29200000
H        3.81000000       0.77000000       0.56840000
