12
Properties=species:S:1:pos:R:3 gdb_24797=T pbc="F F F"
N       -0.09510000       1.32520000       0.11610000
C       -0.04040000       0.06020000      -0.02590000
C       -1.24310000      -0.76230000      -0.13320000
C       -1.13550000      -2.08360000      -0.28110000
O        0.08010000      -2.71910000      -0.33800000
C        1.16700000      -1.91120000      -0.23350000
N        1.19080000      -0.64910000      -0.09110000
C        2.39110000      -2.67120000      -0.30530000
N        3.37450000      -3.27440000      -0.36210000
H        0.85330000       1.70230000       0.17010000
H       -2.21340000      -0.28620000      -0.09120000
H       -1.94740000      -2.79170000      -0.37080000
