21
Properties=species:S:1:pos:R:3 gdb_126194=T pbc="F F F"
C        0.01160000       1.61340000       0.13720000
C       -0.02860000       0.07800000       0.03190000
C        0.65300000      -0.46210000      -1.19120000
C        0.08220000      -0.77700000      -2.41370000
C       -1.32560000      -0.69950000      -2.90740000
N        1.10360000      -1.20820000      -3.19940000
N        2.30150000      -1.20280000      -2.57820000
C        2.03770000      -0.74720000      -1.35640000
C        3.13600000      -0.60440000      -0.34960000
H        1.04280000       1.98000000       0.15120000
H       -0.49010000       2.07750000      -0.71800000
H       -0.48280000       1.95960000       1.05090000
H        0.43750000      -0.35230000       0.92700000
H       -1.07420000      -0.25310000       0.05210000
H       -1.49820000       0.18940000      -3.52640000
H       -1.59030000      -1.57600000      -3.50920000
H       -2.02260000      -0.65270000      -2.06710000
H        1.04930000      -1.53400000      -4.14940000
H        3.28960000       0.44090000      -0.05760000
H        2.91780000      -1.16500000       0.56680000
H        4.07140000      -0.98200000      -0.76830000
