15
Properties=species:S:1:pos:R:3 gdb_113139=T pbc="F F F"
O        0.04710000       1.35680000      -0.41890000
C        0.06440000       0.12640000       0.28400000
C       -1.31710000      -0.48020000       0.32190000
O       -1.77720000      -1.05220000      -0.90100000
C       -1.56830000      -1.94760000       0.21790000
C       -0.47200000      -2.88030000       0.08960000
C        0.42150000      -3.67820000      -0.00010000
C       -2.76920000      -2.49000000       0.81060000
C       -3.76130000      -2.94160000       1.31470000
H       -0.22500000       1.16220000      -1.32290000
H        0.77170000      -0.58990000      -0.15290000
H        0.39410000       0.35610000       1.30260000
H       -2.07310000       0.10200000       0.84970000
H        1.21270000      -4.38220000      -0.08410000
H       -4.64050000      -3.34340000       1.75520000
