16
Properties=species:S:1:pos:R:3 gdb_77197=T pbc="F F F"
C       -0.31150000       1.37660000      -0.07530000
C       -0.02430000      -0.09770000       0.13650000
C        0.95810000      -0.80870000      -0.84000000
O        1.73760000      -1.32720000       0.27900000
C        0.98840000      -0.55240000       1.23180000
C        1.79390000       0.50900000       1.84680000
N        2.41440000       1.35520000       2.33150000
C        0.42860000      -1.84080000      -1.70720000
C       -0.03060000      -2.68400000      -2.43010000
H        0.61070000       1.96010000      -0.15030000
H       -0.88570000       1.51930000      -0.99610000
H       -0.89960000       1.78460000       0.75240000
H       -0.94940000      -0.66850000       0.23310000
H        1.56240000      -0.09820000      -1.41950000
H        0.57420000      -1.18190000       2.02670000
H       -0.42800000      -3.43270000      -3.07070000
