18
Properties=species:S:1:pos:R:3 gdb_15339=T pbc="F F F"
C        0.18830000       1.53750000       0.07510000
C       -0.36930000       0.17150000      -0.34260000
C        0.51780000      -0.51420000      -1.35090000
O        1.75490000      -1.04470000      -0.87550000
C        0.76590000      -1.97420000      -1.36130000
C        0.16820000      -2.87690000      -0.41520000
C       -0.33060000      -3.66550000       0.34690000
C       -0.92660000      -4.61330000       1.27610000
H        1.18180000       1.42600000       0.51920000
H        0.27800000       2.21200000      -0.78360000
H       -0.46270000       2.01860000       0.81090000
H       -0.47980000      -0.47820000       0.53060000
H       -1.36750000       0.28970000      -0.78390000
H        0.60520000      -0.00520000      -2.31470000
H        1.03220000      -2.42590000      -2.31750000
H       -2.00750000      -4.45860000       1.36650000
H       -0.76340000      -5.64590000       0.94910000
H       -0.49130000      -4.50890000       2.27600000
