19
Properties=species:S:1:pos:R:3 gdb_97543=T pbc="F F F"
C        0.13960000       1.58780000       0.05290000
C        0.01430000       0.05840000      -0.04140000
C        0.60960000      -0.63240000       1.21340000
C       -1.46480000      -0.36090000      -0.12360000
O       -2.39590000       0.39220000      -0.03410000
C        0.66250000      -0.46590000      -1.24530000
C        1.16470000      -0.92280000      -2.24030000
C        1.77720000      -1.44790000      -3.45420000
O        2.59810000      -2.56360000      -3.13170000
H        1.19070000       1.87570000       0.13360000
H       -0.28840000       2.06770000      -0.82970000
H       -0.40010000       1.95360000       0.92990000
H        0.12910000      -0.24840000       2.11850000
H        0.46980000      -1.71630000       1.17220000
H        1.68240000      -0.43250000       1.27210000
H       -1.60610000      -1.45500000      -0.26890000
H        0.98180000      -1.72880000      -4.16380000
H        2.36200000      -0.64630000      -3.93450000
H        2.97840000      -2.88700000      -3.95490000
