18
Properties=species:S:1:pos:R:3 gdb_99696=T pbc="F F F"
C        0.22620000       0.92600000      -0.74810000
O        0.14020000      -0.41420000      -0.29450000
C        0.51240000      -0.56390000       1.07160000
C       -0.02970000      -1.81910000       1.57750000
C       -0.44950000      -2.86010000       2.01120000
C       -0.96510000      -4.11550000       2.53490000
C        2.05660000      -0.55460000       1.27040000
N        2.73470000      -0.99890000       0.18240000
O        2.56520000      -0.19270000       2.30940000
H        1.25260000       1.31520000      -0.69400000
H       -0.10060000       0.92810000      -1.79020000
H       -0.43160000       1.58650000      -0.16540000
H        0.13090000       0.27640000       1.66970000
H       -0.15610000      -4.74980000       2.91290000
H       -1.66810000      -3.94430000       3.35730000
H       -1.49350000      -4.67730000       1.75700000
H        2.22990000      -1.30880000      -0.63080000
H        3.73420000      -1.10100000       0.23400000
