19
Properties=species:S:1:pos:R:3 gdb_107991=T pbc="F F F"
C       -0.07520000       1.36170000       0.00090000
O        0.08590000      -0.04550000      -0.01780000
C        0.70350000      -0.52640000      -1.14740000
C        2.15870000      -0.32320000      -1.64610000
C        1.52120000      -1.31860000      -2.64310000
C        0.80050000      -2.04850000      -1.45750000
C       -0.57140000      -2.47290000      -1.96500000
O       -0.91870000      -1.34370000      -2.78910000
C        0.20090000      -0.49730000      -2.63270000
H        0.89330000       1.88020000      -0.03010000
H       -0.68780000       1.70910000      -0.84220000
H       -0.58170000       1.61200000       0.93530000
H        2.42740000       0.66100000      -2.04050000
H        2.94750000      -0.72150000      -1.00390000
H        1.98620000      -1.78800000      -3.50630000
H        1.36120000      -2.70440000      -0.79180000
H       -0.55130000      -3.38660000      -2.57130000
H       -1.30820000      -2.59240000      -1.16190000
H        0.08620000       0.42180000      -3.20600000
