21
Properties=species:S:1:pos:R:3 gdb_77897=T pbc="F F F"
C       -0.71560000       1.26720000      -0.24810000
C       -0.31050000      -0.18370000      -0.44140000
C        0.51400000      -0.81280000      -1.55030000
C        1.74080000       0.00210000      -1.98100000
C        1.59520000       1.32040000      -2.73290000
C        2.22520000      -0.00730000      -0.47840000
O        2.37400000       1.21370000       0.22330000
C        0.99990000      -0.82840000      -0.09190000
O        1.08850000      -1.92600000       0.75290000
H       -1.42500000       1.58580000      -1.02040000
H       -1.21380000       1.38590000       0.72110000
H        0.14230000       1.93730000      -0.25260000
H       -1.11150000      -0.87690000      -0.18190000
H        0.11110000      -1.64450000      -2.11690000
H        2.41140000      -0.64820000      -2.55440000
H        0.95890000       2.03740000      -2.21330000
H        2.57460000       1.79030000      -2.88360000
H        1.16260000       1.14700000      -3.72430000
H        3.12500000      -0.62630000      -0.37010000
H        3.20200000       1.61990000      -0.05250000
H        0.82620000      -1.64640000       1.63660000
