16
Properties=species:S:1:pos:R:3 gdb_49772=T pbc="F F F"
N       -0.03590000       1.30960000       0.02540000
C       -0.04590000       0.04040000      -0.07700000
N       -1.21590000      -0.68550000      -0.03100000
C       -2.49980000      -0.17070000       0.11600000
N       -3.45760000      -1.00840000       0.14210000
C       -2.87370000      -2.34430000      -0.02440000
C       -1.30920000      -2.15690000      -0.06320000
C       -0.66020000      -2.75170000      -1.22430000
C       -0.12790000      -3.25800000      -2.17530000
H        0.91620000       1.66130000      -0.04040000
H        0.82980000      -0.60200000      -0.21740000
H       -2.60550000       0.90380000       0.19570000
H       -3.17220000      -2.99590000       0.80130000
H       -3.23750000      -2.79590000      -0.95210000
H       -0.85580000      -2.57150000       0.84640000
H        0.33810000      -3.70300000      -3.02000000
