16
Properties=species:S:1:pos:R:3 gdb_35474=T pbc="F F F"
N       -0.12550000      -1.13870000      -0.14240000
C       -0.04680000       0.01260000      -0.09660000
C       -0.00910000       1.47970000      -0.00940000
C       -0.72220000       1.96770000       1.28410000
C       -0.62280000       3.48000000       1.31260000
C        0.32060000       4.19870000       2.22440000
N        0.63180000       4.03230000       0.79920000
C        1.59560000       3.10620000       0.39270000
N        1.38000000       1.93940000      -0.07120000
H       -0.55950000       1.86540000      -0.87960000
H       -1.76410000       1.64110000       1.30010000
H       -0.21660000       1.51200000       2.13970000
H       -1.50030000       4.02450000       0.97260000
H        0.10080000       5.21500000       2.53640000
H        0.88780000       3.60350000       2.93560000
H        2.61920000       3.47860000       0.43040000
