15
Properties=species:S:1:pos:R:3 gdb_130354=T pbc="F F F"
N       -0.00230000       1.37840000       0.10320000
C        0.05900000       0.01590000       0.02260000
N        1.17480000      -0.61110000      -0.00110000
C        1.16400000      -1.99560000      -0.01780000
C        2.30290000      -2.78290000       0.00330000
N        3.64510000      -2.43980000       0.12480000
N        1.82200000      -4.04750000      -0.02450000
N        0.46200000      -4.06210000      -0.07300000
N        0.07480000      -2.82180000      -0.05920000
H        0.85530000       1.88010000      -0.07260000
H       -0.84930000       1.83380000      -0.19210000
H       -0.91160000      -0.48680000       0.02430000
H        3.72530000      -1.42840000       0.11980000
H        4.23410000      -2.82600000      -0.60490000
H        2.32650000      -4.91760000       0.01370000
