18
Properties=species:S:1:pos:R:3 gdb_85566=T pbc="F F F"
C       -0.34160000       1.45880000       0.03010000
C        0.02570000      -0.02470000       0.06660000
C        0.73550000      -0.49540000      -1.21820000
C        1.02070000      -1.98140000      -1.17820000
O        0.92220000      -2.71760000      -2.12810000
C        1.42880000      -2.54080000       0.18940000
N        1.59590000      -1.51750000       1.20320000
C        0.88530000      -0.34890000       1.29350000
O        0.96450000       0.37560000       2.26670000
H        0.54950000       2.07620000      -0.12040000
H       -1.04220000       1.66060000      -0.78540000
H       -0.79500000       1.76080000       0.97530000
H       -0.90000000      -0.61050000       0.17590000
H        0.15530000      -0.27440000      -2.11730000
H        1.69680000       0.03060000      -1.31000000
H        0.67340000      -3.29280000       0.46560000
H        2.37060000      -3.08270000       0.05480000
H        2.11740000      -1.74940000       2.03650000
