19
Properties=species:S:1:pos:R:3 gdb_38146=T pbc="F F F"
C       -0.02810000       1.47850000       0.09910000
C        1.30920000       0.76380000      -0.06660000
C        2.04630000       0.37760000       1.17060000
C        1.37120000      -0.51880000       1.89730000
C        0.04260000      -0.86480000       1.25650000
O       -0.09220000      -2.22480000       0.81770000
C       -0.00140000      -2.27100000      -0.60550000
C       -0.51710000      -0.91290000      -1.11180000
C        0.00560000      -0.01070000      -0.01740000
H       -0.25570000       1.92230000       1.06400000
H       -0.39160000       2.04320000      -0.75450000
H        1.85000000       0.91550000      -0.99540000
H        3.00980000       0.80070000       1.43500000
H        1.67720000      -0.92280000       2.85520000
H       -0.79250000      -0.67090000       1.94330000
H        1.04140000      -2.42460000      -0.92370000
H       -0.59490000      -3.12340000      -0.94830000
H       -0.13910000      -0.66160000      -2.10640000
H       -1.61290000      -0.90380000      -1.14780000
