22
Properties=species:S:1:pos:R:3 gdb_5988=T pbc="F F F"
C       -0.20670000       1.53900000       0.00840000
C        0.05110000       0.02900000      -0.00840000
C        0.82690000      -0.49660000       1.20980000
C        2.22420000       0.13250000       1.33780000
O        0.04180000      -0.18410000       2.36120000
C        0.94330000      -2.02600000       1.11580000
O        1.47160000      -2.48970000       2.34580000
C        1.53100000      -3.89350000       2.43950000
H        0.72050000       2.11320000      -0.07930000
H       -0.85110000       1.82620000      -0.82800000
H       -0.70080000       1.83150000       0.93810000
H       -0.91080000      -0.49640000      -0.03880000
H        0.59560000      -0.24970000      -0.91940000
H        2.14180000       1.19990000       1.55230000
H        2.77410000      -0.34230000       2.15460000
H        2.80520000       0.00450000       0.41760000
H        0.38410000      -0.74140000       3.07100000
H       -0.05380000      -2.46260000       0.94700000
H        1.59510000      -2.32330000       0.27840000
H        1.93620000      -4.14010000       3.42390000
H        0.53450000      -4.35050000       2.33790000
H        2.18690000      -4.32360000       1.66710000
