16
Properties=species:S:1:pos:R:3 gdb_32255=T pbc="F F F"
C        0.11910000       1.32050000       0.03390000
O       -0.00350000      -0.09120000      -0.00730000
C       -1.26130000      -0.62740000       0.01760000
C       -2.46270000       0.06510000       0.08050000
N       -3.65980000      -0.53950000       0.10160000
C       -3.67300000      -1.87010000       0.05920000
C       -2.52760000      -2.66250000      -0.00510000
C       -1.29290000      -2.03330000      -0.02650000
O       -0.14560000      -2.74230000      -0.08820000
H        1.18800000       1.53640000       0.00410000
H       -0.37110000       1.78780000      -0.82890000
H       -0.30970000       1.73030000       0.95660000
H       -2.47380000       1.15000000       0.11640000
H       -4.65230000      -2.34200000       0.07690000
H       -2.58350000      -3.74410000      -0.03820000
H        0.58310000      -2.10630000      -0.09210000
