23
Properties=species:S:1:pos:R:3 gdb_111092=T pbc="F F F"
C       -0.06700000       1.57760000      -0.04630000
C       -0.18850000       0.05060000      -0.12860000
C        0.66220000      -0.54150000      -1.24950000
C        2.22870000      -0.65710000      -1.06070000
C        1.94360000      -1.96890000      -0.25470000
C        0.82380000      -2.10940000      -1.34010000
C        1.68810000      -2.21390000      -2.61120000
C        1.46720000      -3.16830000      -3.73270000
C        2.60690000      -1.25870000      -2.41990000
H        0.96130000       1.88350000       0.17340000
H       -0.35600000       2.04860000      -0.99240000
H       -0.71050000       1.98550000       0.73940000
H        0.06580000      -0.38670000       0.84250000
H       -1.23720000      -0.21790000      -0.31570000
H        0.37420000      -0.07660000      -2.19930000
H        2.83440000       0.15670000      -0.66080000
H        2.72960000      -2.72790000      -0.25280000
H        1.56990000      -1.80760000       0.75950000
H       -0.02230000      -2.79030000      -1.22910000
H        0.47420000      -3.03730000      -4.18250000
H        2.21430000      -3.03640000      -4.52100000
H        1.51600000      -4.21060000      -3.39100000
H        3.42490000      -0.95190000      -3.05740000
