18
Properties=species:S:1:pos:R:3 gdb_63242=T pbc="F F F"
C       -0.33080000       1.56980000      -0.04650000
C        0.07150000       0.08740000      -0.00050000
C       -1.18930000      -0.80590000       0.03970000
N        0.80890000      -0.22420000      -1.23060000
C        1.94170000      -0.77640000      -1.18990000
O        2.66720000      -1.20690000      -0.12980000
C        2.02480000      -1.18130000       1.14660000
C        0.87300000      -0.19000000       1.27100000
O        0.60230000       0.28180000       2.34950000
H        0.55390000       2.20750000      -0.12800000
H       -0.96110000       1.74790000      -0.92100000
H       -0.87240000       1.84250000       0.86130000
H       -1.75100000      -0.66500000      -0.88740000
H       -0.92490000      -1.86550000       0.11470000
H       -1.81960000      -0.53930000       0.89190000
H        2.49850000      -0.96730000      -2.10560000
H        1.63120000      -2.18560000       1.36290000
H        2.78220000      -0.94580000       1.89650000
