14
Properties=species:S:1:pos:R:3 gdb_48861=T pbc="F F F"
O       -0.26720000       0.34640000      -0.52910000
C        0.07680000       1.20780000       0.24210000
C        1.32250000       1.98490000       0.07770000
O        1.61910000       3.04370000       1.09260000
C        2.60600000       3.36140000       0.14180000
N        3.82800000       3.10390000       0.34300000
C        4.02200000       1.90880000      -0.55430000
C        2.57170000       1.48430000      -0.89080000
C        1.83640000       2.75010000      -1.07140000
H       -0.51670000       1.49080000       1.13490000
H        4.59740000       2.09010000      -1.47400000
H        4.56500000       1.18220000       0.05610000
H        2.33670000       0.59060000      -1.46100000
H        1.31870000       3.21510000      -1.89940000
