15
Properties=species:S:1:pos:R:3 gdb_124225=T pbc="F F F"
C        0.01560000       1.47720000      -0.09230000
C       -0.01120000       0.00180000       0.16160000
N       -0.07500000      -0.51160000       1.31030000
O        0.05270000      -0.67070000      -1.05730000
C       -0.04900000      -2.03030000      -1.05690000
C        0.93400000      -2.93900000      -1.29830000
O        0.41390000      -4.17310000      -1.30850000
N       -0.95440000      -4.10160000      -1.05920000
C       -1.22050000      -2.82860000      -0.91290000
H        0.92430000       1.74920000      -0.63810000
H       -0.83560000       1.76950000      -0.71490000
H       -0.01940000       2.01000000       0.85640000
H       -0.06950000      -1.53230000       1.28590000
H        1.99200000      -2.85200000      -1.48570000
H       -2.23320000      -2.51000000      -0.71240000
