17
Properties=species:S:1:pos:R:3 gdb_46298=T pbc="F F F"
N       -0.05170000       1.22280000      -0.19000000
C        0.01550000      -0.01040000       0.00990000
O        1.09760000      -0.81470000       0.31910000
C        0.26260000      -1.99840000       0.44920000
C       -0.99550000      -1.17220000       0.00720000
N       -2.15410000      -1.07160000       0.86730000
C       -3.33130000      -1.66430000       0.22350000
C       -2.88350000      -1.82090000      -1.20260000
C       -1.59110000      -1.53810000      -1.32590000
H        0.86230000       1.66900000      -0.09090000
H        0.59360000      -2.79730000      -0.21930000
H        0.23770000      -2.35310000       1.48480000
H       -1.99630000      -1.37090000       1.81810000
H       -3.62540000      -2.63660000       0.65470000
H       -4.20640000      -1.00450000       0.31220000
H       -3.55170000      -2.12410000      -1.99860000
H       -1.00000000      -1.56140000      -2.23220000
