15
Properties=species:S:1:pos:R:3 gdb_3744=T pbc="F F F"
C       -0.11210000       1.38530000       0.08500000
N        0.00840000      -0.05120000      -0.01930000
C        0.29250000      -0.79010000      -1.11910000
C        0.29880000      -2.11000000      -0.72310000
C        0.00270000      -2.07320000       0.65990000
C       -0.12270000      -3.21560000       1.61870000
N       -0.17170000      -0.81800000       1.07630000
H        0.06580000       1.82770000      -0.89670000
H       -1.11380000       1.66000000       0.42740000
H        0.62060000       1.77880000       0.79510000
H        0.46430000      -0.32620000      -2.07800000
H        0.48880000      -2.97400000      -1.33970000
H        0.80710000      -3.79200000       1.68000000
H       -0.36010000      -2.83930000       2.61600000
H       -0.91390000      -3.90990000       1.31470000
