23
Properties=species:S:1:pos:R:3 gdb_122626=T pbc="F F F"
C       -0.35700000       1.49810000      -0.11760000
C        0.14730000       0.06900000      -0.07670000
O        1.44360000      -0.08000000      -0.70470000
C        1.94860000      -0.83950000       0.41040000
C        0.67820000      -0.56090000       1.24490000
C        0.85960000       0.34680000       2.45870000
C        1.51860000      -0.37810000       3.63760000
C        1.73430000       0.52530000       4.84450000
O        2.34190000      -0.24880000       5.86750000
H        0.33760000       2.18680000       0.36980000
H       -0.47300000       1.81520000      -1.15890000
H       -1.33430000       1.57820000       0.37090000
H       -0.58600000      -0.58740000      -0.56940000
H        2.11560000      -1.89280000       0.14860000
H        2.88520000      -0.42040000       0.80020000
H        0.13290000      -1.46190000       1.54120000
H        1.46740000       1.21740000       2.18010000
H       -0.11730000       0.73980000       2.77080000
H        0.90280000      -1.23140000       3.94760000
H        2.49040000      -0.78880000       3.33710000
H        2.37010000       1.37990000       4.55970000
H        0.76740000       0.93820000       5.17720000
H        2.48460000       0.31870000       6.63040000
