18
Properties=species:S:1:pos:R:3 gdb_97408=T pbc="F F F"
C        0.12240000       1.01170000       0.50750000
N       -0.11070000      -0.16610000      -0.30240000
C       -1.09720000      -0.88410000      -0.01280000
O       -1.36420000      -2.00010000      -0.74320000
C       -2.49370000      -2.72830000      -0.35040000
C       -2.53260000      -4.14220000      -0.77410000
C       -2.36370000      -3.81860000       0.71380000
C       -1.04830000      -4.09440000       1.34080000
O       -0.91140000      -4.43640000       2.48990000
H        1.11820000       0.95120000       0.96010000
H        0.11700000       1.90090000      -0.13250000
H       -0.61630000       1.15720000       1.31200000
H       -1.80600000      -0.70100000       0.80830000
H       -3.41690000      -2.15340000      -0.34110000
H       -3.47180000      -4.57610000      -1.09430000
H       -1.65150000      -4.51380000      -1.28680000
H       -3.21310000      -3.96830000       1.37110000
H       -0.17510000      -3.96990000       0.66460000
