21
Properties=species:S:1:pos:R:3 gdb_97073=T pbc="F F F"
C       -0.23550000       1.44610000       0.05320000
N       -0.14390000      -0.00430000       0.06600000
C        0.63660000      -0.57680000       0.87670000
C        0.68120000      -2.08710000       0.95940000
N        2.02760000      -2.56350000       1.27060000
C        2.51740000      -1.96340000       2.50830000
C        3.87580000      -2.54390000       2.88970000
C        2.61440000      -0.46520000       2.24660000
O        1.37680000       0.10710000       1.80290000
H        0.63140000       1.95270000       0.49180000
H       -0.36590000       1.78130000      -0.98050000
H       -1.12860000       1.76320000       0.60680000
H       -0.05910000      -2.38910000       1.72660000
H        0.34720000      -2.48490000       0.00060000
H        2.02190000      -3.57520000       1.34860000
H        1.80970000      -2.11540000       3.34750000
H        4.59760000      -2.39780000       2.08040000
H        4.26430000      -2.07300000       3.79790000
H        3.79590000      -3.61900000       3.08190000
H        2.87760000       0.07980000       3.15690000
H        3.38430000      -0.28210000       1.48530000
