21
Properties=species:S:1:pos:R:3 gdb_39052=T pbc="F F F"
C        0.03210000       1.62310000       0.15220000
C        1.27510000       0.79500000      -0.06330000
C        2.37540000       0.68180000       0.98190000
C        2.77270000      -0.75070000       1.27630000
C        1.95550000      -1.72950000       1.67810000
C        0.49950000      -1.68180000       1.96790000
C       -0.14200000      -0.50190000       2.68350000
C       -0.47430000      -0.75090000       1.24130000
C       -0.06730000       0.11350000       0.08540000
H       -0.09140000       2.08050000       1.12930000
H       -0.36520000       2.21130000      -0.66810000
H        1.65820000       0.77890000      -1.07990000
H        3.25020000       1.23550000       0.62460000
H        2.08000000       1.19120000       1.90700000
H        3.82290000      -0.99870000       1.14360000
H        2.40110000      -2.71000000       1.83440000
H        0.08590000      -2.64990000       2.23240000
H       -0.90420000      -0.71780000       3.42450000
H        0.49520000       0.33200000       2.94740000
H       -1.45570000      -1.19280000       1.08900000
H       -0.45950000      -0.27010000      -0.85310000
