18
Properties=species:S:1:pos:R:3 gdb_48969=T pbc="F F F"
O       -0.24060000       0.33770000      -0.75970000
C        0.07880000       1.07560000       0.14470000
C        1.33540000       1.83870000       0.19670000
C        1.79590000       2.83670000       1.25140000
N        2.48680000       3.66340000       0.19170000
C        3.90730000       3.25460000       0.12000000
C        3.91460000       1.72890000      -0.20690000
C        2.50460000       1.52400000      -0.75230000
C        1.82600000       2.83900000      -0.86170000
H       -0.59660000       1.23910000       1.01570000
H        0.96960000       3.40090000       1.69450000
H        2.45370000       2.47690000       2.05100000
H        4.38290000       3.82220000      -0.68630000
H        4.41420000       3.50560000       1.05540000
H        4.66570000       1.47280000      -0.95980000
H        4.11560000       1.11220000       0.67460000
H        2.27530000       0.74870000      -1.47320000
H        1.29750000       3.26140000      -1.70620000
