14
Properties=species:S:1:pos:R:3 gdb_131630=T pbc="F F F"
O       -0.12880000       1.47330000       0.20560000
C        0.03310000       0.08370000      -0.03590000
C       -1.32440000      -0.53350000      -0.00260000
C       -1.77680000      -1.84170000       0.02160000
N       -3.15320000      -1.81820000       0.02400000
N       -3.55780000      -0.58730000       0.00610000
N       -2.45700000       0.19430000      -0.01570000
C       -1.00820000      -3.02640000       0.04180000
C       -0.32890000      -4.02000000       0.05940000
H        0.71880000       1.90780000       0.07580000
H        0.49930000      -0.10310000      -1.01580000
H        0.67050000      -0.39660000       0.72100000
H       -2.52920000       1.20000000      -0.00820000
H        0.25740000      -4.90510000       0.07560000
