19
Properties=species:S:1:pos:R:3 gdb_83760=T pbc="F F F"
C       -0.16680000       1.61080000      -0.00880000
C        0.03850000       0.09960000       0.00340000
C        1.14830000      -0.58480000      -0.88360000
C        2.38350000       0.30450000      -1.01370000
O        2.79820000       0.54640000       0.33950000
C        2.20390000      -0.46340000       1.12960000
C        1.50560000      -1.50400000       0.31710000
C        0.68950000      -0.57470000       1.21280000
O        0.03250000      -0.92710000       2.37900000
H        0.76010000       2.14140000       0.22370000
H       -0.53200000       1.95780000      -0.98200000
H       -0.91590000       1.89710000       0.73810000
H       -0.91040000      -0.41160000      -0.19360000
H        0.81490000      -1.04250000      -1.81420000
H        3.18590000      -0.20030000      -1.57210000
H        2.18100000       1.27000000      -1.48790000
H        2.77790000      -0.72850000       2.01000000
H        1.67220000      -2.57230000       0.33210000
H        0.10800000      -0.19650000       3.00270000
