20
Properties=species:S:1:pos:R:3 gdb_63010=T pbc="F F F"
C        0.02210000       1.56110000       0.02190000
C        0.03970000       0.03040000       0.00880000
O       -1.30110000      -0.46940000      -0.03050000
C        0.71140000      -0.60370000      -1.21650000
C        2.17240000      -0.36140000      -1.49740000
C        1.74510000      -1.58080000      -0.71610000
N        1.75030000      -1.61020000       0.74990000
C        2.22230000      -0.40610000       1.44810000
C        0.77150000      -0.60810000       1.20810000
H        1.03090000       1.97960000      -0.01700000
H       -0.54390000       1.93600000      -0.83570000
H       -0.45420000       1.93400000       0.93700000
H       -1.78760000      -0.06590000       0.69630000
H        0.04180000      -0.83060000      -2.03760000
H        2.50170000      -0.53570000      -2.51660000
H        2.69720000       0.45440000      -1.01600000
H        1.87980000      -2.55900000      -1.16220000
H        2.62960000      -0.59490000       2.43820000
H        2.75400000       0.36310000       0.89920000
H        0.12690000      -0.90150000       2.03500000
