12
Properties=species:S:1:pos:R:3 gdb_131263=T pbc="F F F"
O       -0.15580000       1.34450000       0.01010000
C        0.03030000       0.01590000       0.00240000
C        1.12650000      -0.79540000      -0.00700000
N        0.68590000      -2.13200000      -0.01180000
C       -0.66970000      -2.11890000      -0.00560000
N       -1.72110000      -2.91990000      -0.00500000
N       -2.77720000      -2.06130000       0.00410000
N       -2.43930000      -0.80590000       0.00950000
N       -1.07150000      -0.82460000       0.00300000
H        0.69830000       1.78970000       0.00970000
H        2.17260000      -0.54320000      -0.01040000
H        1.26660000      -2.95020000      -0.01890000
