23
Properties=species:S:1:pos:R:3 gdb_94609=T pbc="F F F"
C       -0.05530000       1.58330000      -0.19990000
C       -0.03360000       0.07330000       0.02630000
C        1.03550000      -0.67130000      -0.82910000
C        1.96380000      -0.72470000       0.41350000
C        0.72500000      -0.42270000       1.30440000
C        0.87310000       0.48660000       2.52190000
C        1.70130000      -0.15500000       3.61000000
C        1.40770000       0.02120000       5.03700000
O        1.06690000      -1.19330000       4.36600000
H        0.94910000       2.01930000      -0.15420000
H       -0.46460000       1.81310000      -1.18970000
H       -0.67530000       2.09710000       0.54260000
H       -1.05290000      -0.31500000      -0.06640000
H        0.70150000      -1.66630000      -1.13540000
H        1.40940000      -0.14560000      -1.71230000
H        2.50710000      -1.65400000       0.60060000
H        2.68480000       0.09980000       0.42200000
H        0.27970000      -1.36660000       1.63670000
H        1.34540000       1.43540000       2.23570000
H       -0.11580000       0.72890000       2.93060000
H        2.73280000      -0.38690000       3.33660000
H        2.20650000      -0.05810000       5.77350000
H        0.56360000       0.64210000       5.33600000
