17
Properties=species:S:1:pos:R:3 gdb_126131=T pbc="F F F"
C        0.07960000       1.50060000       0.00960000
C       -0.04460000      -0.02120000       0.00320000
C       -1.48710000      -0.47360000       0.01230000
O       -2.44630000       0.25780000       0.02370000
N       -1.68630000      -1.87790000       0.00650000
C       -2.90140000      -2.51320000       0.01280000
C       -2.64070000      -3.85600000       0.00370000
C       -1.22150000      -3.94680000      -0.00810000
N       -0.64670000      -2.75830000      -0.00640000
H        1.13310000       1.79220000       0.00280000
H       -0.40670000       1.93950000      -0.86510000
H       -0.39300000       1.93100000       0.89610000
H        0.44530000      -0.46840000      -0.86890000
H        0.45870000      -0.47670000       0.86330000
H       -3.81230000      -1.93930000       0.02310000
H       -3.35710000      -4.66120000       0.00510000
H       -0.60840000      -4.83680000      -0.01760000
