21
Properties=species:S:1:pos:R:3 gdb_30648=T pbc="F F F"
C        0.08980000       1.52010000      -0.01300000
C       -0.01860000      -0.00710000       0.01940000
C       -1.46840000      -0.54840000      -0.02130000
C       -2.20580000      -0.17470000      -1.32200000
C       -1.48880000      -2.02710000       0.20210000
C       -1.98980000      -2.82230000       1.18670000
C       -1.67780000      -4.17530000       0.82500000
C       -1.01020000      -4.10130000      -0.35320000
O       -0.88510000      -2.80420000      -0.74760000
H        1.13170000       1.83550000       0.10040000
H       -0.27740000       1.94060000      -0.95400000
H       -0.48420000       1.97640000       0.80200000
H        0.54160000      -0.44030000      -0.81790000
H        0.45810000      -0.38250000       0.93250000
H       -2.01520000      -0.10930000       0.82330000
H       -1.69060000      -0.59400000      -2.19180000
H       -3.22640000      -0.56810000      -1.31470000
H       -2.26360000       0.90970000      -1.44840000
H       -2.51900000      -2.48660000       2.06520000
H       -1.92090000      -5.07350000       1.37090000
H       -0.57660000      -4.83420000      -1.01340000
