19
Properties=species:S:1:pos:R:3 gdb_74853=T pbc="F F F"
C        0.08890000       1.48900000       0.02920000
C       -0.00400000      -0.00490000      -0.00030000
C       -0.12080000      -0.78230000      -1.08750000
C       -0.06750000      -2.22800000      -0.73210000
N        1.23440000      -2.61710000      -0.10360000
C        0.07150000      -2.28200000       0.74670000
C        0.07150000      -0.85620000       1.23520000
C        0.73060000      -0.41640000       2.49240000
N       -0.73090000      -0.56850000       2.44500000
H        1.08750000       1.82130000       0.33850000
H       -0.11230000       1.91270000      -0.95790000
H       -0.62570000       1.93400000       0.73340000
H       -0.18850000      -0.41850000      -2.10610000
H       -0.61060000      -2.97350000      -1.30240000
H        1.31220000      -3.63340000      -0.13540000
H       -0.39210000      -3.04370000       1.36320000
H        1.25120000      -1.14780000       3.10430000
H        1.15380000       0.58420000       2.52830000
H       -1.17750000       0.34230000       2.36300000
