17
Properties=species:S:1:pos:R:3 gdb_48267=T pbc="F F F"
O       -0.34160000       0.51560000      -0.65580000
C        0.20420000       1.02210000       0.28340000
C        1.33650000       2.06050000       0.14190000
C        1.41950000       2.66620000      -1.27720000
C        2.73780000       3.34860000      -1.55920000
C        2.79600000       4.53170000      -2.45210000
N        3.05190000       4.67680000      -1.01000000
C        1.19510000       3.07230000       1.18920000
N        1.03380000       3.86920000       2.01080000
H       -0.05020000       0.75790000       1.33040000
H        2.26230000       1.50120000       0.35310000
H        1.25830000       1.84570000      -1.98300000
H        0.58830000       3.36670000      -1.41320000
H        3.59610000       2.67690000      -1.55150000
H        3.65990000       4.69160000      -3.09050000
H        1.85910000       4.90490000      -2.85900000
H        2.23920000       5.07090000      -0.54160000
