19
Properties=species:S:1:pos:R:3 gdb_15890=T pbc="F F F"
C       -0.57780000       1.24170000       0.13490000
C       -0.12170000      -0.22050000       0.08980000
C        0.65320000      -0.60830000      -1.18070000
N        2.11840000      -0.33550000      -1.29040000
C        2.77540000       0.68350000      -0.50370000
C        2.49980000      -1.74390000      -1.07460000
C        1.01680000      -2.10320000      -1.22090000
O        0.38840000      -3.11620000      -1.29530000
H        0.26670000       1.93630000       0.14880000
H       -1.19370000       1.48470000      -0.73760000
H       -1.17740000       1.43270000       1.03030000
H        0.47220000      -0.46180000       0.97990000
H       -1.00110000      -0.87540000       0.12530000
H        0.09910000      -0.25480000      -2.06150000
H        2.65510000       0.56590000       0.58900000
H        3.84870000       0.66150000      -0.71980000
H        2.40580000       1.67470000      -0.78380000
H        3.19860000      -2.16250000      -1.80790000
H        2.87080000      -1.98000000      -0.06140000
