18
Properties=species:S:1:pos:R:3 gdb_74597=T pbc="F F F"
C       -0.03870000       1.53870000       0.03830000
C       -0.04730000       0.04660000      -0.04330000
C       -0.07190000      -0.73230000      -1.13690000
C        0.02390000      -2.17700000      -0.71830000
C        1.34280000      -2.55350000       0.01440000
C        1.36540000      -1.69980000       1.23130000
C        0.05790000      -0.86220000       1.16520000
C       -0.54010000      -2.22340000       0.72700000
N        0.66850000      -3.02650000       1.26610000
H        0.88740000       1.90690000       0.49850000
H       -0.12830000       1.99690000      -0.95060000
H       -0.86230000       1.90850000       0.66210000
H       -0.08190000      -0.38520000      -2.16380000
H       -0.32780000      -2.93720000      -1.41490000
H        2.21910000      -3.05030000      -0.38520000
H        2.25830000      -1.50850000       1.81470000
H       -0.26010000      -0.46080000       2.12780000
H       -1.55880000      -2.53060000       0.96030000
