15
Properties=species:S:1:pos:R:3 gdb_41042=T pbc="F F F"
C        0.08300000       1.36650000      -0.13790000
O        1.44020000       1.82010000       0.02500000
C        2.01120000       0.86030000       0.84170000
C        3.23030000      -0.01410000       0.99760000
C        2.47690000       0.55550000       2.25050000
C        1.53280000      -0.70170000       2.25250000
C        2.28800000      -1.26890000       0.99960000
C        1.10810000      -0.34220000       0.84360000
O        0.02600000      -0.06300000       0.02790000
H       -0.55490000       1.84670000       0.61660000
H       -0.24450000       1.61090000      -1.15000000
H        4.27010000       0.13170000       0.73370000
H        2.89550000       1.16990000       3.03740000
H        1.06060000      -1.27340000       3.04120000
H        2.43750000      -2.30870000       0.73750000
