17
Properties=species:S:1:pos:R:3 gdb_82687=T pbc="F F F"
O       -0.02830000       1.48660000       0.15380000
C       -0.02010000       0.08180000       0.09840000
C        0.21760000      -0.73810000       1.40090000
C       -0.83020000      -0.16690000       2.39330000
C       -1.87820000      -0.78840000       1.47210000
C       -0.88070000      -1.74550000       0.88490000
C       -1.38700000      -0.58690000       0.01820000
C       -2.26700000      -0.63730000      -1.09590000
C       -2.99930000      -0.67370000      -2.05070000
H        0.87240000       1.80450000       0.03680000
H        0.61700000      -0.28960000      -0.71480000
H        1.22560000      -0.99300000       1.72060000
H       -0.79710000      -0.68850000       3.35350000
H       -0.83440000       0.91620000       2.54120000
H       -2.93270000      -0.95160000       1.65030000
H       -0.89800000      -2.80520000       0.68170000
H       -3.64860000      -0.70280000      -2.88990000
