21
Properties=species:S:1:pos:R:3 gdb_59549=T pbc="F F F"
C        0.01970000       1.46990000      -0.21630000
C        0.08370000      -0.02960000       0.10330000
C        0.72630000      -0.29470000       1.47200000
C       -1.30660000      -0.64530000       0.05310000
O       -1.97720000      -0.50770000      -1.24110000
C       -2.30040000      -1.89920000      -1.24700000
C       -1.04870000      -2.73520000      -1.31270000
C       -1.52010000      -2.16470000       0.00980000
O       -1.84890000      -2.93440000       1.10760000
H        1.02270000       1.90820000      -0.23920000
H       -0.45360000       1.63820000      -1.18700000
H       -0.56230000       2.00740000       0.54200000
H        0.69320000      -0.51700000      -0.66860000
H        0.14640000       0.17210000       2.27660000
H        0.79260000      -1.36610000       1.68940000
H        1.73980000       0.11630000       1.51170000
H       -1.94790000      -0.20720000       0.83170000
H       -3.28130000      -2.20160000      -1.59230000
H       -1.23260000      -3.80240000      -1.40140000
H       -0.16780000      -2.36630000      -1.83020000
H       -1.06290000      -3.41460000       1.38960000
