21
Properties=species:S:1:pos:R:3 gdb_116457=T pbc="F F F"
C        0.03880000       1.54890000       0.05510000
C       -0.02400000       0.02170000      -0.02050000
C        0.69160000      -0.55080000      -1.23630000
O        2.07210000      -0.16240000      -1.16850000
C        2.79390000      -0.61600000      -2.28210000
O        2.81140000      -2.01820000      -2.37590000
C        1.48860000      -2.53150000      -2.52290000
C        0.63620000      -2.08890000      -1.32800000
O        1.10040000      -2.69700000      -0.13550000
H        1.07550000       1.89270000       0.09140000
H       -0.43720000       2.01160000      -0.81710000
H       -0.47490000       1.91630000       0.94840000
H        0.41320000      -0.42960000       0.87510000
H       -1.06790000      -0.31420000      -0.05990000
H        0.25200000      -0.13030000      -2.15910000
H        2.36600000      -0.18600000      -3.20780000
H        3.82790000      -0.28960000      -2.15390000
H        1.04480000      -2.18110000      -3.46940000
H        1.57600000      -3.61980000      -2.55140000
H       -0.40020000      -2.41770000      -1.46430000
H        2.02880000      -2.44500000      -0.05380000
