19
Properties=species:S:1:pos:R:3 gdb_40031=T pbc="F F F"
C        0.04040000       1.53560000      -0.00560000
N        1.25660000       0.70080000       0.03050000
C       -0.06010000       0.05500000       0.02970000
C       -0.45980000      -0.78310000       1.24610000
C       -1.48460000      -1.74480000       0.65390000
C       -2.71800000      -1.01550000       0.05570000
C       -1.98860000      -1.09680000      -1.27570000
C       -0.54850000      -0.73820000      -1.15660000
N       -0.97980000      -2.09760000      -0.75600000
H       -0.14010000       2.11810000       0.89440000
H       -0.22070000       2.04390000      -0.93130000
H        1.67860000       0.65380000      -0.89450000
H        0.41690000      -1.32490000       1.61590000
H       -0.86730000      -0.18800000       2.06870000
H       -1.68500000      -2.63080000       1.25480000
H       -3.60710000      -1.64960000       0.05940000
H       -2.97950000      -0.02890000       0.45220000
H       -2.45770000      -1.22310000      -2.24740000
H        0.02730000      -0.69990000      -2.07820000
