19
Properties=species:S:1:pos:R:3 gdb_116977=T pbc="F F F"
C       -0.12130000       1.31250000       0.46930000
O       -0.14880000      -0.09480000       0.41120000
C       -1.16130000      -0.56940000      -0.45540000
C       -1.15280000      -2.02570000      -0.48780000
C       -1.15530000      -3.22810000      -0.53650000
C       -1.17160000      -4.68440000      -0.56290000
C       -2.06460000      -5.29470000       0.54320000
C       -1.96450000      -6.80320000       0.57450000
O       -2.90100000      -7.55820000       0.55350000
H        0.68210000       1.59160000       1.15440000
H        0.07990000       1.75980000      -0.51740000
H       -1.07070000       1.72630000       0.84540000
H       -2.15080000      -0.20830000      -0.12320000
H       -1.01140000      -0.17220000      -1.47500000
H       -1.51950000      -5.03140000      -1.54420000
H       -0.14630000      -5.06280000      -0.45380000
H       -1.72160000      -4.91680000       1.51570000
H       -3.11050000      -5.00620000       0.41600000
H       -0.91830000      -7.19050000       0.62400000
