19
Properties=species:S:1:pos:R:3 gdb_32987=T pbc="F F F"
C       -0.03430000       1.58010000       0.03860000
C        0.00010000       0.05070000       0.00560000
C        0.71220000      -0.50300000      -1.24460000
C        0.74760000      -2.00850000      -1.28040000
C        1.78170000      -2.75020000      -0.70780000
N        1.81120000      -4.08390000      -0.70050000
C        0.77700000      -4.69060000      -1.28420000
N       -0.26540000      -4.10490000      -1.87500000
C       -0.26440000      -2.77090000      -1.86500000
H        0.97770000       2.00000000       0.03590000
H       -0.56190000       1.98410000      -0.83240000
H       -0.54380000       1.94490000       0.93550000
H        0.50430000      -0.33180000       0.90170000
H       -1.02150000      -0.34750000       0.03960000
H        0.20600000      -0.12680000      -2.14210000
H        1.73630000      -0.11130000      -1.27730000
H        2.62600000      -2.24470000      -0.24000000
H        0.78710000      -5.77790000      -1.28270000
H       -1.10800000      -2.28250000      -2.35190000
