18
Properties=species:S:1:pos:R:3 gdb_72569=T pbc="F F F"
O        0.04760000       1.37740000       0.04660000
C       -0.00980000      -0.00880000       0.04380000
C        0.70480000      -0.72290000       1.24150000
C        0.17420000      -2.18340000       1.15430000
C       -0.74540000      -2.11430000      -0.09610000
C       -1.38270000      -0.71680000       0.05170000
N        0.09220000      -1.88260000      -1.28770000
C        0.61660000      -0.62180000      -1.21460000
O        1.41910000      -0.07080000      -1.94040000
H        0.66880000       1.61190000      -0.66080000
H        1.79200000      -0.64840000       1.16250000
H        0.40230000      -0.22490000       2.16610000
H        0.96840000      -2.92290000       1.02500000
H       -0.40030000      -2.46440000       2.04160000
H       -1.41960000      -2.95790000      -0.23900000
H       -1.92990000      -0.58860000       0.98880000
H       -2.01330000      -0.44120000      -0.79590000
H        0.53990000      -2.61830000      -1.81310000
