12
Properties=species:S:1:pos:R:3 gdb_4992=T pbc="F F F"
O        0.09920000       1.36970000       0.04120000
C        0.07640000       0.02550000       0.00560000
N        0.04080000      -0.59940000      -1.14810000
C        0.01920000      -1.94680000      -1.12690000
C        0.03400000      -2.64440000       0.06200000
N        0.07060000      -2.00520000       1.24800000
C        0.09170000      -0.69290000       1.23020000
O        0.12840000      -0.00570000       2.38560000
H        0.08370000       1.66380000      -0.88080000
H       -0.01020000      -2.45320000      -2.08580000
H        0.01680000      -3.72870000       0.08820000
H        0.13320000      -0.66710000       3.09220000
