18
Properties=species:S:1:pos:R:3 gdb_99507=T pbc="F F F"
C       -0.06330000       1.36910000      -0.07940000
O       -0.16380000      -0.04170000      -0.12590000
C        0.55080000      -0.65620000      -1.19600000
C        1.23780000      -1.84420000      -0.69940000
C        1.84750000      -2.78280000      -0.26700000
C       -0.41930000      -0.95870000      -2.33950000
N       -0.75860000      -2.13300000      -2.65650000
O       -0.82090000       0.22460000      -2.88040000
C       -1.80460000       0.17720000      -3.90430000
H        0.98470000       1.69600000      -0.00320000
H       -0.52000000       1.84380000      -0.95610000
H       -0.59580000       1.68740000       0.82010000
H        1.30050000       0.04830000      -1.58850000
H        2.36750000      -3.62920000       0.10800000
H       -1.42880000      -2.16220000      -3.42370000
H       -1.99970000       1.21250000      -4.18560000
H       -1.44150000      -0.37380000      -4.78030000
H       -2.73140000      -0.28450000      -3.54410000
