11
Properties=species:S:1:pos:R:3 gdb_21845=T pbc="F F F"
O       -0.06320000       0.01450000       0.15870000
C       -0.01280000       1.18280000      -0.05010000
O        1.06440000       1.93120000       0.36200000
C        1.01610000       3.27730000       0.19180000
N       -0.09530000       3.99580000       0.31730000
N        0.34400000       5.23250000       0.09660000
N        1.63730000       5.37190000      -0.14280000
C        2.10000000       4.12300000      -0.09190000
H       -0.76590000       1.78950000      -0.57470000
H       -0.27890000       6.02330000       0.12750000
H        3.13920000       3.88910000      -0.24920000
