23
Properties=species:S:1:pos:R:3 gdb_63746=T pbc="F F F"
C       -0.64470000       1.54130000       0.02990000
C       -0.05840000       0.13720000      -0.03660000
C       -1.07700000      -0.92820000       0.34710000
C        0.79610000      -0.17370000      -1.29240000
C        1.98000000      -0.25470000      -0.30830000
C        2.87670000      -1.51390000      -0.26180000
C        3.99020000      -0.69150000      -0.96760000
C        3.24750000       0.60240000      -0.53370000
O        1.12930000       0.03780000       0.80830000
H        0.10890000       2.28980000      -0.23020000
H       -1.48840000       1.64350000      -0.66170000
H       -1.00370000       1.75630000       1.04170000
H       -1.93500000      -0.90890000      -0.33390000
H       -0.62870000      -1.92500000       0.31130000
H       -1.44340000      -0.75560000       1.36430000
H        0.54750000      -1.10720000      -1.80230000
H        0.85240000       0.63390000      -2.02580000
H        3.13890000      -1.74390000       0.77510000
H        2.50780000      -2.42250000      -0.74570000
H        5.01330000      -0.82510000      -0.61200000
H        3.97850000      -0.82880000      -2.05210000
H        3.18330000       1.43380000      -1.24120000
H        3.61590000       0.97840000       0.42530000
