15
Properties=species:S:1:pos:R:3 gdb_61379=T pbc="F F F"
O        0.21750000       1.44400000      -0.55410000
C        0.01550000       0.13190000      -0.05080000
C        0.19180000      -0.93950000      -1.16240000
C       -0.59210000      -0.53880000      -2.39360000
O       -1.73810000      -0.85190000      -2.61220000
C        0.12520000       0.34440000      -3.42520000
O        1.25340000       0.74360000      -3.29260000
C        0.87690000      -0.17110000       1.09420000
C        1.61210000      -0.42320000       2.01080000
H        1.10520000       1.48750000      -0.93190000
H       -1.03240000       0.11580000       0.26980000
H        1.25380000      -1.02130000      -1.40920000
H       -0.17510000      -1.90310000      -0.80220000
H       -0.50600000       0.57530000      -4.30770000
H        2.25030000      -0.63580000       2.83310000
