17
Properties=species:S:1:pos:R:3 gdb_124884=T pbc="F F F"
C       -0.04660000       1.49290000       0.02860000
C       -0.03940000      -0.02020000      -0.03560000
C        0.69150000      -0.70480000      -1.13340000
N        1.23810000      -0.73520000       0.23250000
C       -1.23700000      -0.67540000       0.55400000
N       -1.64520000      -1.88820000       0.20650000
N       -2.72090000      -2.07040000       1.00620000
C       -2.92250000      -0.98390000       1.77590000
N       -2.00360000      -0.07620000       1.51740000
H        0.86030000       1.89700000      -0.43270000
H       -0.91150000       1.90730000      -0.49940000
H       -0.10120000       1.83720000       1.06490000
H        0.33110000      -1.66130000      -1.49720000
H        1.17100000      -0.07590000      -1.87980000
H        1.98280000      -0.04620000       0.31960000
H       -3.24300000      -2.92970000       0.95600000
H       -3.73010000      -0.90160000       2.48770000
