15
Properties=species:S:1:pos:R:3 gdb_131937=T pbc="F F F"
C       -0.03380000       1.54980000      -0.00180000
C       -0.01170000       0.05410000       0.02690000
C       -0.02550000      -0.78430000      -1.06090000
N        0.00380000      -2.09290000      -0.61990000
C        0.03640000      -2.13220000       0.73360000
C        0.02760000      -0.81890000       1.16150000
N        0.05520000      -0.45140000       2.54370000
O        0.08730000      -1.35730000       3.37540000
O        0.04500000       0.74710000       2.81910000
H        0.84850000       1.97090000       0.48830000
H       -0.06550000       1.90940000      -1.03420000
H       -0.90120000       1.94590000       0.53350000
H       -0.05380000      -0.55480000      -2.11390000
H        0.00130000      -2.90240000      -1.21660000
H        0.06300000      -3.04570000       1.30100000
