13
Properties=species:S:1:pos:R:3 gdb_131208=T pbc="F F F"
O        0.07080000       1.35030000       0.24390000
C        0.08510000       0.02620000      -0.01770000
C        0.21710000      -0.75990000      -1.12730000
O        0.52080000      -0.75400000      -2.46940000
C        0.29140000      -2.13060000      -2.83790000
O        0.35040000      -2.95390000      -1.65730000
C        0.13240000      -2.06560000      -0.64800000
N       -0.05460000      -2.18900000       0.63900000
N       -0.03270000      -0.85580000       1.03460000
H        0.17810000       1.83190000      -0.58260000
H       -0.70950000      -2.22130000      -3.28380000
H        1.07030000      -2.44720000      -3.53360000
H       -0.46380000      -0.62450000       1.91440000
