15
Properties=species:S:1:pos:R:3 gdb_131177=T pbc="F F F"
O       -1.28060000       0.66410000      -0.43950000
C       -0.39920000      -0.33450000      -0.20030000
C        0.18900000      -1.17080000      -1.13160000
N        0.96820000      -1.96450000      -0.34670000
N        0.87740000      -1.65650000       0.94940000
N        0.03360000      -0.65100000       1.03620000
N        0.15700000      -1.34880000      -2.51900000
C       -1.12000000      -1.11180000      -3.21690000
C        0.00190000      -0.15190000      -3.36590000
H       -1.49760000       1.05300000       0.41780000
H        1.56640000      -2.71540000      -0.65520000
H       -1.34150000      -1.82600000      -4.00400000
H       -1.96750000      -0.79600000      -2.61610000
H       -0.09440000       0.80650000      -2.86510000
H        0.61250000      -0.15430000      -4.26360000
