15
Properties=species:S:1:pos:R:3 gdb_10328=T pbc="F F F"
N       -0.25810000       1.32040000      -0.01300000
C       -0.01710000      -0.01600000      -0.04310000
O        1.08840000      -0.50910000      -0.15940000
C       -1.27840000      -0.90710000       0.00740000
C       -0.90420000      -2.39290000       0.14030000
O       -2.05200000      -3.22840000       0.08760000
C       -2.30300000      -0.50240000       1.06010000
O       -2.62090000       0.63630000       1.31600000
H        0.54730000       1.92210000       0.06520000
H       -1.14970000       1.64020000       0.34300000
H       -1.79360000      -0.76130000      -0.95590000
H       -0.15970000      -2.65160000      -0.61780000
H       -0.44120000      -2.57210000       1.11530000
H       -2.34790000      -3.27710000      -0.82700000
H       -2.77670000      -1.35470000       1.58400000
