17
Properties=species:S:1:pos:R:3 gdb_45746=T pbc="F F F"
N       -0.02510000       1.26970000       0.17810000
C        0.02010000       0.00890000       0.06160000
N        1.11070000      -0.86010000      -0.05390000
C        0.63590000      -2.16120000      -0.09730000
N       -0.63340000      -2.29800000      -0.07820000
C       -1.18790000      -0.93450000       0.00150000
C       -2.13640000      -0.75480000       1.17840000
C       -3.12430000      -1.80450000       1.50900000
N       -1.97310000      -1.55170000       2.40120000
H        0.90230000       1.69600000       0.19110000
H        2.07760000      -0.59220000       0.02630000
H        1.33960000      -2.98620000      -0.15270000
H       -1.74210000      -0.72530000      -0.92340000
H       -2.38070000       0.28980000       1.35310000
H       -4.09240000      -1.52860000       1.91710000
H       -3.11150000      -2.70960000       0.90890000
H       -1.27910000      -2.27610000       2.22270000
