17
Properties=species:S:1:pos:R:3 gdb_57020=T pbc="F F F"
C       -0.04990000       1.46330000      -0.14830000
C        0.00930000      -0.06280000       0.06240000
C        0.80510000      -0.42490000       1.23130000
C        1.44090000      -0.70460000       2.21180000
C       -1.41280000      -0.63750000       0.20140000
O       -2.23640000      -0.37920000      -0.96140000
C       -2.47730000      -1.77510000      -1.23720000
C       -1.60150000      -2.14770000      -0.03350000
O       -1.22550000      -3.15470000       0.47860000
H        0.95370000       1.86320000      -0.31150000
H       -0.67180000       1.69220000      -1.01670000
H       -0.47570000       1.95640000       0.73060000
H        0.46100000      -0.51660000      -0.83010000
H        2.00970000      -0.96810000       3.06900000
H       -1.88070000      -0.26560000       1.12300000
H       -3.53460000      -2.05340000      -1.14390000
H       -2.10230000      -2.09150000      -2.21830000
