10
Properties=species:S:1:pos:R:3 gdb_21394=T pbc="F F F"
N       -0.01270000       1.34720000       0.00990000
N        1.31860000       1.77200000      -0.00090000
N        2.09200000       0.74130000      -0.01400000
C        1.30270000      -0.37240000      -0.01230000
C       -0.02970000       0.00490000       0.00290000
N       -0.71910000      -1.14690000       0.00360000
N        0.19170000      -2.20670000      -0.01110000
N        1.39080000      -1.73450000      -0.02050000
H       -0.74380000       2.03750000       0.02090000
H       -1.70360000      -1.35130000       0.01210000
