18
Properties=species:S:1:pos:R:3 gdb_39586=T pbc="F F F"
C       -0.00580000       1.46580000      -0.24520000
C        1.29200000       2.20990000       0.19200000
C        2.41950000       1.19890000       0.11830000
N        3.83110000       1.53040000       0.41610000
C        4.28060000       0.45060000       0.91700000
O        3.42750000      -0.58900000       1.16880000
C        2.13460000       0.06850000       1.09440000
C        0.93160000      -0.70520000       0.67100000
C       -0.05370000      -0.01530000       0.08860000
H       -0.88390000       1.96030000       0.18870000
H       -0.13400000       1.56470000      -1.33260000
H        1.47110000       3.07150000      -0.45690000
H        1.19220000       2.58900000       1.21560000
H        2.41760000       0.78170000      -0.90210000
H        5.31640000       0.25280000       1.17020000
H        1.97190000       0.49000000       2.10080000
H        0.84480000      -1.76240000       0.89920000
H       -0.97260000      -0.52660000      -0.18940000
