19
Properties=species:S:1:pos:R:3 gdb_108568=T pbc="F F F"
O       -0.05070000       1.37610000      -0.33470000
C       -0.06010000       0.02860000       0.10450000
C       -1.43570000      -0.57040000       0.03980000
O       -2.35190000       0.13980000       0.86510000
C       -3.32290000      -0.80770000       1.33090000
C       -3.24420000      -1.94590000       0.31710000
C       -3.47570000      -1.38500000      -1.12500000
C       -1.96690000      -1.17650000      -1.24570000
C       -1.72000000      -2.02990000       0.00900000
H       -0.73570000       1.82870000       0.17050000
H        0.62060000      -0.52410000      -0.55100000
H        0.31960000      -0.05560000       1.13500000
H       -3.06990000      -1.14580000       2.34750000
H       -4.30020000      -0.31410000       1.35480000
H       -3.78050000      -2.85180000       0.59590000
H       -3.82870000      -2.16340000      -1.80570000
H       -4.12000000      -0.50370000      -1.21550000
H       -1.39190000      -1.13860000      -2.16430000
H       -1.03000000      -2.83810000       0.21550000
