14
Properties=species:S:1:pos:R:3 gdb_12046=T pbc="F F F"
O       -0.00130000       1.37850000      -0.08080000
C        0.02740000      -0.01580000      -0.01850000
C        0.30950000      -0.68270000       1.40160000
C       -1.10320000      -1.25990000       1.36050000
N       -2.01290000      -0.09880000       1.18000000
C       -1.35870000      -0.71410000       0.00400000
C        0.91230000      -0.52430000      -1.06650000
N        1.59740000      -0.97400000      -1.88050000
H       -0.74430000       1.63050000       0.48900000
H        1.09270000      -1.44030000       1.35250000
H        0.52090000       0.03510000       2.19690000
H       -1.46030000      -2.17870000       1.80570000
H       -2.97470000      -0.43200000       1.20860000
H       -1.92460000      -1.09160000      -0.83760000
