13
Properties=species:S:1:pos:R:3 gdb_132127=T pbc="F F F"
O        0.07000000       1.33160000       0.00740000
C       -0.03230000       0.00030000       0.00090000
C       -1.20300000      -0.67680000       0.00360000
F       -2.37220000      -0.02410000       0.01320000
C       -1.16850000      -2.09810000      -0.00410000
C        0.01080000      -2.76440000      -0.01390000
C        1.26720000      -2.05530000      -0.01680000
N        2.41840000      -2.58650000      -0.02580000
O        1.15070000      -0.63860000      -0.00880000
H        1.00910000       1.55830000       0.00350000
H       -2.11550000      -2.62680000      -0.00180000
H        0.07130000      -3.84350000      -0.01990000
H        3.15640000      -1.88430000      -0.02610000
