20
Properties=species:S:1:pos:R:3 gdb_110501=T pbc="F F F"
C       -0.06600000       1.56940000       0.07990000
C        0.01280000       0.06670000       0.03080000
C       -1.25020000      -0.82380000       0.22790000
C       -0.28390000      -1.90820000       0.69300000
C        0.75940000      -0.91620000       1.03320000
N        0.99960000      -1.84480000      -0.10410000
C        0.81230000      -0.69340000      -1.05460000
C        0.27930000      -1.08090000      -2.42470000
O        1.19560000      -1.95080000      -3.07040000
H        0.92900000       2.02300000       0.01530000
H       -0.66340000       1.95640000      -0.75390000
H       -0.53340000       1.91460000       1.00840000
H       -1.84570000      -0.46470000       1.07230000
H       -1.90660000      -1.00450000      -0.62870000
H       -0.49830000      -2.86030000       1.15980000
H        1.42970000      -0.78860000       1.87350000
H        1.80260000      -0.24090000      -1.18390000
H       -0.71430000      -1.54570000      -2.34690000
H        0.18070000      -0.19460000      -3.06220000
H        1.42890000      -2.62630000      -2.42180000
