25
Properties=species:S:1:pos:R:3 gdb_81350=T pbc="F F F"
C       -0.11720000       1.58210000      -0.00390000
C       -0.00110000       0.06140000       0.00330000
C        1.10310000      -0.58950000      -0.89230000
C        2.09780000      -0.29970000       0.26720000
C        0.84600000      -0.59950000       1.13950000
C        0.64300000      -2.11090000       0.87470000
C       -0.66270000      -2.69300000       1.41790000
C        0.84230000      -2.10320000      -0.70110000
C       -0.28610000      -2.67840000      -1.55800000
H        0.84200000       2.09190000       0.11980000
H       -0.55380000       1.92950000      -0.94710000
H       -0.77520000       1.92090000       0.80440000
H       -1.00540000      -0.35480000      -0.12580000
H        1.28840000      -0.24670000      -1.91300000
H        2.95880000      -0.96780000       0.37280000
H        2.43310000       0.73600000       0.31470000
H        0.77070000      -0.26680000       2.17740000
H        1.46690000      -2.66860000       1.33570000
H       -1.54790000      -2.17120000       1.04220000
H       -0.76940000      -3.75090000       1.15650000
H       -0.68050000      -2.62380000       2.51120000
H        1.75580000      -2.65740000      -0.94770000
H       -1.23770000      -2.15940000      -1.40940000
H       -0.03120000      -2.59830000      -2.62060000
H       -0.45300000      -3.73870000      -1.34190000
