14
Properties=species:S:1:pos:R:3 gdb_42311=T pbc="F F F"
O        0.01950000      -0.06180000       0.00380000
C       -0.03440000       1.14900000       0.00770000
C        1.18870000       1.97220000       0.00150000
N        2.16740000       2.58640000      -0.00360000
N       -1.19230000       1.86690000       0.01810000
C       -2.51720000       1.22730000       0.02550000
C       -3.45130000       2.47070000       0.03540000
N       -2.58200000       3.66070000       0.03270000
C       -1.37970000       3.25970000       0.02330000
H       -2.63100000       0.59630000      -0.85920000
H       -2.61890000       0.59150000       0.90830000
H       -4.10620000       2.50330000      -0.84020000
H       -4.09420000       2.49840000       0.92000000
H       -0.51020000       3.90690000       0.01910000
