18
Properties=species:S:1:pos:R:3 gdb_48753=T pbc="F F F"
O       -0.44970000       0.67770000       0.76770000
C        0.19040000       1.01180000      -0.19820000
C        1.42380000       1.85060000      -0.14190000
C        2.00430000       2.10060000       1.23590000
C        3.19740000       3.07520000       1.24440000
C        2.96990000       4.27180000       0.35800000
C        2.19070000       4.21680000      -0.72440000
C        1.50420000       2.97280000      -1.15340000
N        2.25160000       1.71910000      -1.35660000
H       -0.09960000       0.72200000      -1.23220000
H        1.19400000       2.50260000       1.85360000
H        2.29060000       1.14910000       1.69590000
H        3.39190000       3.39730000       2.27280000
H        4.11430000       2.55260000       0.93300000
H        3.47530000       5.19820000       0.61490000
H        2.03770000       5.09580000      -1.34320000
H        0.68780000       3.09570000      -1.86050000
H        3.23180000       1.86640000      -1.12540000
