21
Properties=species:S:1:pos:R:3 gdb_100695=T pbc="F F F"
C       -0.09920000       1.48380000       0.02600000
C       -0.02220000       0.03010000       0.00620000
C        0.04910000      -1.17270000       0.00800000
C        0.07210000      -2.63730000      -0.03030000
O       -1.25140000      -3.17010000       0.07910000
C        0.81470000      -3.17510000      -1.27830000
C        2.26260000      -2.67660000      -1.33820000
C        0.75230000      -4.70370000      -1.30190000
O        1.33420000      -5.14720000      -2.52160000
H        0.82050000       1.92090000       0.43010000
H       -0.24570000       1.89170000      -0.98010000
H       -0.93100000       1.82820000       0.65020000
H        0.59150000      -3.01260000       0.86220000
H       -1.80350000      -2.68470000      -0.54390000
H        0.27750000      -2.81180000      -2.16530000
H        2.81530000      -2.97910000      -0.43980000
H        2.76850000      -3.10860000      -2.20380000
H        2.30510000      -1.58720000      -1.40870000
H        1.30150000      -5.10400000      -0.43170000
H       -0.29120000      -5.02880000      -1.21290000
H        1.26450000      -6.10540000      -2.55300000
