13
Properties=species:S:1:pos:R:3 gdb_129829=T pbc="F F F"
N        0.03060000       1.36450000       0.15460000
C       -0.04960000       0.00510000       0.05760000
C       -1.20060000      -0.72710000       0.03130000
C       -1.14050000      -2.15530000      -0.01220000
O       -2.07460000      -2.93830000      -0.04230000
C        0.28180000      -2.64420000      -0.01890000
O        0.43330000      -3.97000000      -0.04970000
N        1.35220000      -1.92550000       0.00060000
O        1.17930000      -0.53510000       0.03250000
H        0.91310000       1.77730000      -0.10570000
H       -0.78840000       1.88830000      -0.10710000
H       -2.16410000      -0.23460000       0.05140000
H        1.38390000      -4.15850000      -0.04990000
