18
Properties=species:S:1:pos:R:3 gdb_101940=T pbc="F F F"
N        0.00850000       0.95870000       0.20260000
H        0.17420000      -0.04220000       0.25720000
H        0.91640000       1.41100000       0.19580000
H       -1.25240000       1.41650000      -0.94050000
C       -0.79900000       1.41170000       1.35270000
C       -2.27690000       1.01770000       1.15480000
C       -3.08530000       1.32200000       2.39680000
C       -4.06050000       0.37990000       2.94350000
O       -2.76930000       0.52940000       3.54700000
C       -2.92830000       1.67970000      -0.07470000
O       -2.16280000       1.74640000      -1.16760000
O       -4.05900000       2.09450000      -0.05460000
H       -0.45440000       1.00120000       2.30940000
H       -0.71210000       2.50230000       1.41050000
H       -2.30750000      -0.06900000       0.98780000
H       -3.22970000       2.38180000       2.60530000
H       -4.89780000       0.75090000       3.53110000
H       -4.23250000      -0.56810000       2.43610000
