17
Properties=species:S:1:pos:R:3 gdb_84515=T pbc="F F F"
O       -0.05400000       1.49530000       0.00270000
C        0.03410000       0.07180000      -0.02090000
C        0.67170000      -0.50210000       1.25600000
C       -0.14060000      -1.32300000       1.93410000
C       -1.45790000      -1.39310000       1.25330000
C       -2.33180000      -0.18800000       1.10210000
C       -1.35190000      -0.54790000       0.00240000
C       -1.80320000      -1.82990000      -0.70440000
O       -1.97550000      -2.54060000       0.55770000
H        0.84010000       1.84780000       0.06130000
H        0.58850000      -0.25230000      -0.91660000
H        1.66330000      -0.19900000       1.58470000
H        0.09960000      -1.82130000       2.86670000
H       -3.39320000      -0.33260000       0.92420000
H       -2.06560000       0.68370000       1.68700000
H       -2.73390000      -1.79400000      -1.28280000
H       -1.01230000      -2.29280000      -1.30690000
