16
Properties=species:S:1:pos:R:3 gdb_48592=T pbc="F F F"
O       -0.84620000       1.11920000      -0.06640000
C        0.31200000       0.78610000      -0.08390000
C        1.44320000       1.76570000      -0.03550000
C        1.97980000       2.38820000       1.29920000
C        3.22580000       2.44470000       0.37130000
O        2.76550000       1.20870000      -0.24200000
C        2.79230000       3.52410000      -0.65740000
N        2.49360000       2.95270000      -1.98860000
C        1.43640000       3.01750000      -0.96110000
H        0.62820000      -0.27900000      -0.12010000
H        1.52960000       3.31920000       1.65230000
H        2.07860000       1.64910000       2.09550000
H        4.25340000       2.41130000       0.72960000
H        3.04750000       4.56900000      -0.53110000
H        2.34410000       3.72560000      -2.63610000
H        0.54280000       3.61500000      -1.08340000
