23
Properties=species:S:1:pos:R:3 gdb_117666=T pbc="F F F"
C       -0.04170000       1.71260000       0.04790000
C        0.07700000       0.17620000       0.08710000
C        0.92090000      -0.26060000       1.29660000
C       -1.31880000      -0.49940000       0.10750000
C       -2.22040000      -0.19170000       1.29920000
O       -3.45310000      -0.86070000       1.06410000
C        0.72700000      -0.26010000      -1.22590000
C        2.15700000      -0.52830000      -1.42500000
O        1.21270000      -1.59950000      -1.32800000
H        0.94350000       2.17280000      -0.08220000
H       -0.67910000       2.04280000      -0.77980000
H       -0.46890000       2.10630000       0.97460000
H        0.40740000      -0.03620000       2.23520000
H        1.12140000      -1.33490000       1.26120000
H        1.87900000       0.26780000       1.32360000
H       -1.86810000      -0.20990000      -0.79750000
H       -1.18540000      -1.58570000       0.05270000
H       -1.75970000      -0.54130000       2.23530000
H       -2.37800000       0.89370000       1.39670000
H       -4.02760000      -0.70280000       1.81880000
H        0.16510000       0.05970000      -2.10770000
H        2.59690000      -0.38310000      -2.41110000
H        2.85470000      -0.45000000      -0.59470000
