16
Properties=species:S:1:pos:R:3 gdb_101980=T pbc="F F F"
C       -0.25330000       1.39340000       0.39280000
N       -0.06630000      -0.04500000       0.15500000
C        0.49270000      -0.40430000      -1.13220000
C        1.92630000       0.10370000      -1.41370000
O        2.61360000       0.57110000      -0.54690000
C        0.58300000      -1.95150000      -1.20410000
O        1.06450000      -2.55970000      -2.11620000
C       -0.43610000       0.01240000      -2.27920000
O       -0.09040000       0.06630000      -3.42750000
H        0.67120000       1.97960000       0.32770000
H       -0.97530000       1.80030000      -0.32160000
H       -0.67950000       1.52290000       1.39090000
H        0.54190000      -0.40960000       0.88200000
H        2.26050000      -0.01730000      -2.46040000
H        0.15220000      -2.43490000      -0.30090000
H       -1.47280000       0.22860000      -1.94860000
