16
Properties=species:S:1:pos:R:3 gdb_4549=T pbc="F F F"
C       -0.06250000       1.46240000       0.01480000
N       -0.01150000       0.01780000      -0.00530000
C       -0.06790000      -0.76560000      -1.14730000
C        0.03090000      -2.07760000      -0.75250000
O        0.02480000      -3.13910000      -1.61450000
C        0.12790000      -2.10740000       0.66570000
C        0.09470000      -0.79230000       1.09500000
N        0.21120000      -0.22150000       2.38170000
H        0.33140000       1.80850000       0.97160000
H        0.55140000       1.86720000      -0.79490000
H       -1.08620000       1.83920000      -0.10490000
H       -0.17290000      -0.32890000      -2.12560000
H        0.09600000      -3.94560000      -1.09690000
H        0.20250000      -2.97970000       1.29870000
H        0.70650000      -0.84810000       3.00410000
H       -0.69130000      -0.02130000       2.80390000
