15
Properties=species:S:1:pos:R:3 gdb_50022=T pbc="F F F"
O        0.01160000      -0.00040000      -0.39110000
C        0.06010000       1.12120000       0.04660000
C        1.27590000       1.97420000       0.00480000
C        1.09040000       3.48650000      -0.07000000
C        1.55130000       2.88030000       1.20050000
O        0.79410000       2.85630000       2.40790000
C        1.98080000       2.95900000       3.23720000
C        2.84240000       3.01310000       1.96270000
O        3.99890000       3.10980000       1.69080000
H       -0.82410000       1.60280000       0.51850000
H        2.14050000       1.53110000      -0.47820000
H        1.80000000       4.05720000      -0.65840000
H        0.06780000       3.85210000      -0.08050000
H        1.98530000       3.86640000       3.85010000
H        2.13300000       2.07550000       3.86660000
