25
Properties=species:S:1:pos:R:3 gdb_122209=T pbc="F F F"
C        0.88880000      -0.07990000      -1.17640000
C       -0.06710000      -0.20810000       0.01610000
C        0.59130000      -0.71690000       1.29420000
C        1.69980000       0.13970000       1.89010000
C        1.23600000       1.51830000       2.35150000
O        2.32680000       2.16690000       2.97110000
C        2.00890000       3.45860000       3.42550000
C       -0.28490000      -1.47520000       2.26570000
C        0.73500000      -2.21490000       1.43260000
H        1.38230000      -1.03410000      -1.38920000
H        0.34880000       0.22770000      -2.07730000
H        1.67080000       0.66390000      -0.99370000
H       -0.54870000       0.76060000       0.20350000
H       -0.87880000      -0.89630000      -0.24980000
H        2.13050000      -0.37400000       2.75690000
H        2.51800000       0.26820000       1.17170000
H        0.87300000       2.12010000       1.50110000
H        0.39330000       1.42190000       3.05800000
H        2.90660000       3.87490000       3.88970000
H        1.69770000       4.11950000       2.60000000
H        1.19810000       3.44350000       4.17190000
H       -0.08870000      -1.36400000       3.32720000
H       -1.33460000      -1.60290000       2.02170000
H        0.37310000      -2.83830000       0.62120000
H        1.61620000      -2.60570000       1.93040000
