17
Properties=species:S:1:pos:R:3 gdb_46634=T pbc="F F F"
O       -0.15990000      -0.00890000       0.09990000
C       -0.03270000       1.17750000       0.02600000
O       -1.11560000       2.01810000      -0.04720000
C       -0.72460000       3.41620000      -0.02880000
C        0.70790000       3.36610000       0.38910000
C        1.52920000       4.01130000       1.20970000
C        2.79460000       3.20080000       1.43670000
C        2.39220000       1.76690000       0.97190000
C        1.23680000       2.02000000      -0.01790000
H       -0.87470000       3.82590000      -1.03590000
H       -1.38180000       3.94380000       0.66690000
H        1.34140000       4.96560000       1.68870000
H        3.63260000       3.59320000       0.84360000
H        3.11970000       3.22540000       2.48210000
H        3.22160000       1.21280000       0.52870000
H        2.02570000       1.18610000       1.82360000
H        1.58640000       2.01070000      -1.06200000
