18
Properties=species:S:1:pos:R:3 gdb_117421=T pbc="F F F"
C       -0.68130000       1.47160000       0.14640000
C       -0.50370000       0.04160000      -0.32690000
O       -1.45170000      -0.76780000       0.39010000
C       -1.47030000      -2.07910000       0.08750000
N       -0.68710000      -2.59160000      -0.77180000
N       -2.42440000      -2.69300000       0.89350000
C       -2.87190000      -4.03750000       0.63030000
C       -3.69050000      -4.19250000      -0.59130000
N       -4.34390000      -4.29890000      -1.53800000
H        0.02500000       2.12330000      -0.37610000
H       -1.69470000       1.82890000      -0.05780000
H       -0.49640000       1.55490000       1.22120000
H       -0.68700000      -0.06390000      -1.40060000
H        0.50490000      -0.33490000      -0.13040000
H       -0.84610000      -3.58360000      -0.91550000
H       -3.11340000      -2.05620000       1.26570000
H       -2.00740000      -4.70640000       0.55840000
H       -3.46020000      -4.38520000       1.48460000
