19
Properties=species:S:1:pos:R:3 gdb_91148=T pbc="F F F"
C       -0.73540000       1.31040000      -0.01550000
C       -0.03970000      -0.04440000      -0.03380000
C        1.23750000      -0.19650000      -0.91230000
C        2.04170000      -0.68330000       0.34450000
C        3.04050000       0.29640000       0.89080000
C        2.56550000       1.00380000       1.92530000
C        1.16440000       0.61300000       2.22870000
O        0.44550000       1.08370000       3.08190000
C        0.78790000      -0.48520000       1.23240000
H       -0.02910000       2.12420000       0.17770000
H       -1.21320000       1.50720000      -0.98150000
H       -1.50430000       1.35030000       0.76170000
H       -0.77020000      -0.82150000      -0.27550000
H        1.15930000      -0.93520000      -1.71270000
H        1.60750000       0.73950000      -1.33960000
H        2.44740000      -1.69410000       0.25570000
H        4.02510000       0.42050000       0.44970000
H        3.08150000       1.77880000       2.47820000
H        0.38120000      -1.35040000       1.75810000
