12
Properties=species:S:1:pos:R:3 gdb_572=T pbc="F F F"
C        0.02820000      -1.14950000       0.23470000
C       -0.00220000       0.03650000       0.04550000
C       -0.01210000       1.47480000      -0.19890000
C        1.38280000       2.07740000      -0.22870000
C        1.61680000       3.47630000       0.14560000
O        1.96490000       2.40650000       1.02800000
H        0.04820000      -2.19620000       0.41160000
H       -0.50630000       1.68130000      -1.15800000
H       -0.59580000       1.98520000       0.57640000
H        2.07020000       1.60580000      -0.93140000
H        2.45390000       4.02170000      -0.28710000
H        0.77860000       4.09290000       0.46850000
