19
Properties=species:S:1:pos:R:3 gdb_68582=T pbc="F F F"
O       -0.07760000       1.33690000       0.02580000
C        0.02470000      -0.04010000       0.00420000
C        0.66590000      -0.98290000       1.07160000
C        0.04640000      -1.90440000      -0.02100000
C        0.06130000      -3.41970000      -0.03200000
C       -0.60860000      -3.98550000      -1.19870000
C       -1.16560000      -4.42710000      -2.16780000
C       -1.20560000      -0.97290000      -0.00410000
C        0.65560000      -0.95250000      -1.09370000
H        0.81060000       1.70960000       0.01370000
H        1.75810000      -0.98070000       1.14490000
H        0.19170000      -1.00210000       2.05680000
H        1.10100000      -3.77200000       0.00130000
H       -0.41680000      -3.79350000       0.88310000
H       -1.65590000      -4.82820000      -3.01990000
H       -1.81340000      -0.98810000       0.90480000
H       -1.81960000      -0.96810000      -0.90740000
H        0.17240000      -0.95070000      -2.07330000
H        1.74730000      -0.94870000      -1.17540000
