21
Properties=species:S:1:pos:R:3 gdb_65042=T pbc="F F F"
C        0.03220000       1.52100000       0.01000000
C        0.00860000       0.00240000       0.00220000
C        1.12030000      -0.67850000      -0.76530000
C        1.13230000      -0.68630000       0.74480000
C       -1.36270000      -0.66610000       0.00940000
C       -2.52660000      -0.03530000       0.77050000
C       -2.53720000      -0.02930000      -0.73010000
C       -1.35570000      -2.10840000       0.00350000
C       -1.36370000      -3.31210000      -0.00140000
H        1.06750000       1.87330000       0.00290000
H       -0.45860000       1.94950000      -0.87030000
H       -0.44320000       1.93990000       0.90330000
H        0.89670000      -1.61370000      -1.26530000
H        1.83130000      -0.04690000      -1.28740000
H        1.85160000      -0.05990000       1.26190000
H        0.91670000      -1.62650000       1.23870000
H       -3.19670000      -0.70990000       1.28930000
H       -2.34270000       0.89990000       1.28510000
H       -2.36050000       0.91000000      -1.23980000
H       -3.21460000      -0.69980000      -1.24480000
H       -1.37190000      -4.37370000      -0.00570000
