21
Properties=species:S:1:pos:R:3 gdb_2358=T pbc="F F F"
C        0.05360000       1.50640000       0.09140000
C       -0.07720000      -0.02020000       0.00400000
C       -1.55030000      -0.44850000      -0.03930000
C        0.69310000      -0.57200000      -1.19440000
C        2.24370000      -0.43790000      -1.23420000
C        2.31450000      -1.85800000      -1.85630000
C        0.87080000      -2.11130000      -1.34610000
H        1.10190000       1.81690000       0.14800000
H       -0.38900000       1.98700000      -0.78960000
H       -0.46020000       1.89870000       0.97540000
H        0.37440000      -0.45130000       0.91060000
H       -2.05010000      -0.03770000      -0.92500000
H       -1.65060000      -1.53810000      -0.07630000
H       -2.09330000      -0.09190000       0.84230000
H        0.26540000      -0.15930000      -2.11820000
H        2.67480000       0.39130000      -1.80070000
H        2.66340000      -0.42070000      -0.22220000
H        2.35620000      -1.81920000      -2.94880000
H        3.10270000      -2.52820000      -1.50520000
H        0.87070000      -2.60580000      -0.36830000
H        0.18190000      -2.64720000      -2.00390000
