17
Properties=species:S:1:pos:R:3 gdb_42730=T pbc="F F F"
O        0.07120000       0.06570000      -0.01660000
C       -0.00890000       1.26550000       0.05060000
C       -1.21750000       2.20560000       0.00540000
C       -0.81730000       3.26780000       1.07110000
C        0.28570000       3.55440000       0.01670000
N       -0.76210000       3.22090000      -1.01480000
C        1.12070000       2.28240000       0.08130000
C        2.41630000       2.01390000       0.74310000
N        2.32890000       2.08620000      -0.72540000
H       -2.21150000       1.77270000      -0.08700000
H       -1.55510000       4.06830000       1.12310000
H       -0.51470000       2.92650000       2.06270000
H        0.80120000       4.50970000      -0.06960000
H       -0.36860000       2.80400000      -1.86130000
H        2.95800000       2.83260000       1.20920000
H        2.54920000       1.03970000       1.20700000
H        2.31290000       1.13700000      -1.09990000
