21
Properties=species:S:1:pos:R:3 gdb_118324=T pbc="F F F"
C       -0.83720000       1.80850000       0.28780000
C       -0.45840000       0.38970000      -0.14390000
C       -1.46860000      -0.64570000       0.35950000
N       -1.14430000      -2.02540000      -0.04110000
C       -0.45010000      -2.80320000       0.86630000
O       -0.05290000      -3.93560000       0.71910000
C       -1.54110000      -2.44670000      -1.33110000
C       -1.24840000      -3.86870000      -1.74340000
N       -2.13390000      -1.58160000      -2.05950000
H       -0.10720000       2.53760000      -0.07520000
H       -1.81740000       2.09310000      -0.10960000
H       -0.88180000       1.89890000       1.37930000
H       -0.41320000       0.32860000      -1.23480000
H        0.53870000       0.13460000       0.23670000
H       -1.51530000      -0.62540000       1.45320000
H       -2.46270000      -0.41570000      -0.02590000
H       -0.28620000      -2.24290000       1.80600000
H       -0.17590000      -4.07160000      -1.74540000
H       -1.68960000      -4.58800000      -1.05080000
H       -1.65350000      -4.02980000      -2.74530000
H       -2.38640000      -1.99510000      -2.95480000
