19
Properties=species:S:1:pos:R:3 gdb_54414=T pbc="F F F"
C       -0.31530000       1.37060000      -0.03780000
C        0.08740000      -0.08680000      -0.00510000
O        0.37990000      -0.67800000       1.01640000
C        0.08860000      -0.79870000      -1.30180000
C        0.90900000      -2.02640000      -1.60800000
C       -0.58820000      -2.12920000      -1.67180000
C       -1.40400000      -3.05790000      -0.82410000
C       -1.07470000      -1.35270000      -2.89700000
O       -0.33290000      -0.16260000      -2.51120000
H        0.35850000       1.93210000      -0.69450000
H       -1.31690000       1.47600000      -0.46740000
H       -0.28800000       1.78120000       0.97180000
H        1.50980000      -2.01260000      -2.51340000
H        1.36220000      -2.48720000      -0.73710000
H       -0.98480000      -3.11490000       0.18460000
H       -2.44050000      -2.71420000      -0.73970000
H       -1.41710000      -4.07050000      -1.24390000
H       -0.77750000      -1.72310000      -3.88490000
H       -2.15280000      -1.15430000      -2.88350000
