22
Properties=species:S:1:pos:R:3 gdb_122555=T pbc="F F F"
C        0.15470000       1.42080000       0.19450000
C       -0.15560000      -0.03720000      -0.15260000
C        0.75720000      -0.58340000      -1.24140000
O        0.40820000      -1.93250000      -1.49380000
C        1.18000000      -2.53430000      -2.49870000
C        2.62040000      -3.03500000      -2.17180000
N        2.26750000      -4.44610000      -2.56470000
C        1.19840000      -4.84510000      -1.63530000
C        0.82750000      -3.98400000      -2.77460000
H        1.18160000       1.53540000       0.55890000
H        0.03820000       2.07340000      -0.67780000
H       -0.51650000       1.78950000       0.97540000
H       -0.05280000      -0.67000000       0.73640000
H       -1.19430000      -0.13680000      -0.48770000
H        0.65550000       0.01380000      -2.16440000
H        1.81220000      -0.51030000      -0.92730000
H        1.16880000      -1.92040000      -3.41070000
H        3.39450000      -2.63900000      -2.83180000
H        2.93900000      -2.93570000      -1.12880000
H        0.94330000      -5.89760000      -1.71030000
H        1.18790000      -4.43840000      -0.62710000
H        0.22780000      -4.33800000      -3.60620000
