24
Properties=species:S:1:pos:R:3 gdb_5992=T pbc="F F F"
C        0.14870000       1.63020000      -0.01240000
C       -0.00180000       0.10610000      -0.01490000
C        0.59590000      -0.54720000       1.23660000
C        0.66530000      -2.09170000       1.21860000
C       -0.72080000      -2.72230000       1.05970000
O        1.40810000      -2.53220000       0.07060000
C        1.36620000      -2.57340000       2.51080000
C        1.60120000      -4.08410000       2.60070000
H        1.20330000       1.92600000       0.02730000
H       -0.28690000       2.07480000      -0.91280000
H       -0.35010000       2.07910000       0.85420000
H       -1.06480000      -0.14830000      -0.09700000
H        0.48490000      -0.31880000      -0.89950000
H        1.62080000      -0.17020000       1.37600000
H        0.03910000      -0.22580000       2.12700000
H       -1.18420000      -2.40410000       0.12340000
H       -0.64710000      -3.81160000       1.03720000
H       -1.37450000      -2.43340000       1.88830000
H        2.29400000      -2.15820000       0.13620000
H        2.33430000      -2.05570000       2.57460000
H        0.78710000      -2.22920000       3.37690000
H        2.08880000      -4.45060000       1.69330000
H        2.23910000      -4.32530000       3.45640000
H        0.66560000      -4.63730000       2.72480000
