16
Properties=species:S:1:pos:R:3 gdb_48043=T pbc="F F F"
O       -0.20390000       0.26860000      -0.63300000
C        0.20030000       1.04780000       0.19940000
C        1.25760000       2.00000000      -0.01760000
C        2.14530000       2.80560000      -0.16580000
C        3.19810000       3.78860000      -0.36900000
N        3.55900000       4.46430000       0.88100000
C        4.56360000       5.51530000       0.69470000
C        4.16750000       6.61230000      -0.19840000
C        3.79360000       7.48990000      -0.93110000
H       -0.23270000       1.08060000       1.22010000
H        4.09300000       3.27950000      -0.75350000
H        2.87790000       4.48470000      -1.16480000
H        2.72150000       4.86980000       1.28760000
H        4.81290000       5.91830000       1.68250000
H        5.48020000       5.04660000       0.31420000
H        3.47870000       8.27350000      -1.57550000
