22
Properties=species:S:1:pos:R:3 gdb_26086=T pbc="F F F"
C       -0.00700000       1.53740000      -0.00070000
C       -0.00800000      -0.00880000      -0.00010000
C        0.76010000      -0.51950000       1.24090000
C       -1.46200000      -0.50540000       0.07550000
C        0.64200000      -0.52860000      -1.26290000
C        0.16520000      -1.32300000      -2.28560000
C        1.21290000      -1.50430000      -3.23280000
C        2.30610000      -0.81630000      -2.76760000
N        1.95110000      -0.23050000      -1.57740000
H        1.00950000       1.94340000      -0.04110000
H       -0.55420000       1.92680000      -0.86430000
H       -0.47910000       1.92450000       0.90910000
H        0.29490000      -0.15100000       2.16190000
H        0.76600000      -1.61310000       1.27240000
H        1.80210000      -0.18170000       1.24170000
H       -2.04600000      -0.15350000      -0.78010000
H       -1.50710000      -1.59850000       0.09200000
H       -1.94000000      -0.13330000       0.98740000
H       -0.83020000      -1.73300000      -2.35050000
H        1.16500000      -2.07430000      -4.14800000
H        3.29720000      -0.69200000      -3.17360000
H        2.56130000       0.33600000      -1.01520000
