18
Properties=species:S:1:pos:R:3 gdb_61663=T pbc="F F F"
C        0.06220000       1.51740000       0.10650000
C        0.00000000      -0.01060000      -0.02860000
O        0.63110000      -0.69650000       1.03880000
C        2.03640000      -0.70770000       0.99620000
C        2.82120000       0.34500000       1.81810000
O        3.53900000      -0.69630000       2.50790000
C        2.67200000      -1.71520000       1.96650000
C       -1.39840000      -0.47250000      -0.06520000
N       -2.50230000      -0.80610000      -0.12140000
H        1.10130000       1.85400000       0.06300000
H       -0.48760000       1.99340000      -0.70980000
H       -0.37570000       1.82910000       1.05730000
H        0.46340000      -0.30740000      -0.98380000
H        2.39080000      -0.80540000      -0.03830000
H        3.49280000       1.02070000       1.27610000
H        2.17530000       0.92350000       2.49180000
H        1.95210000      -2.09050000       2.70490000
H        3.23080000      -2.55160000       1.53470000
