23
Properties=species:S:1:pos:R:3 gdb_113757=T pbc="F F F"
C       -0.46350000       1.57840000       0.74690000
C       -0.32650000       0.05420000       0.84910000
C       -1.55970000      -0.66700000       0.34170000
C       -1.73360000      -0.97280000      -1.12710000
C       -1.55950000      -2.10340000      -0.13900000
C       -0.31230000      -2.97770000      -0.14820000
C       -0.13150000      -3.71820000       1.18870000
C       -0.44070000      -3.98340000      -1.27850000
O        0.30180000      -4.07020000      -2.22160000
H        0.43240000       2.08290000       1.12150000
H       -0.61840000       1.88940000      -0.29140000
H       -1.31780000       1.93800000       1.33100000
H        0.55590000      -0.26550000       0.28380000
H       -0.13910000      -0.22420000       1.89460000
H       -2.46910000      -0.37450000       0.86330000
H       -2.70220000      -0.82740000      -1.59230000
H       -0.89250000      -0.75640000      -1.77960000
H       -2.46340000      -2.66210000       0.09760000
H        0.57510000      -2.37750000      -0.36760000
H       -0.97710000      -4.38800000       1.38340000
H        0.78280000      -4.31940000       1.19220000
H       -0.07730000      -3.00370000       2.01460000
H       -1.31770000      -4.66820000      -1.17400000
