27
Properties=species:S:1:pos:R:3 gdb_122137=T pbc="F F F"
C       -1.28530000       2.30800000      -0.81890000
C       -0.88440000       0.83370000      -0.72030000
C       -2.08580000      -0.11120000      -0.60630000
C       -1.68750000      -1.58650000      -0.50870000
C       -2.87220000      -2.55140000      -0.38580000
C       -2.41490000      -4.01450000      -0.34960000
C       -3.56680000      -5.01860000      -0.27570000
O       -3.59430000      -2.25990000       0.81560000
C       -4.93280000      -1.85870000       0.63430000
H       -0.40790000       2.95820000      -0.89440000
H       -1.91100000       2.49030000      -1.70000000
H       -1.85750000       2.62190000       0.06130000
H       -0.28630000       0.55680000      -1.59890000
H       -0.22870000       0.68930000       0.14870000
H       -2.67630000       0.15690000       0.27800000
H       -2.74300000       0.03580000      -1.47560000
H       -1.09770000      -1.87010000      -1.39060000
H       -1.03650000      -1.73300000       0.36340000
H       -3.54020000      -2.40910000      -1.25050000
H       -1.80270000      -4.20930000      -1.23900000
H       -1.75680000      -4.14310000       0.51890000
H       -3.19250000      -6.04610000      -0.23430000
H       -4.17230000      -4.84490000       0.61820000
H       -4.22250000      -4.94020000      -1.15070000
H       -5.01390000      -0.93210000       0.04660000
H       -5.53700000      -2.63380000       0.13940000
H       -5.35100000      -1.67610000       1.62840000
