19
Properties=species:S:1:pos:R:3 gdb_103100=T pbc="F F F"
C       -0.39160000       1.48700000       0.18210000
C        0.24460000       0.11290000      -0.05800000
C        0.81680000      -0.49980000       1.21250000
N        1.91670000       0.16150000       1.87700000
C       -0.09580000      -1.22930000       2.14880000
O       -1.43910000      -1.28200000       1.80970000
C        0.92180000      -2.03220000       1.32410000
C        0.43860000      -2.89260000       0.28840000
N        0.03540000      -3.60460000      -0.53090000
H        0.32760000       2.20290000       0.59500000
H       -0.76600000       1.90650000      -0.75590000
H       -1.23300000       1.40690000       0.87660000
H       -0.49990000      -0.56070000      -0.48800000
H        1.05630000       0.19500000      -0.79280000
H        2.68150000       0.31220000       1.22420000
H        1.62610000       1.07730000       2.20790000
H        0.13000000      -1.15720000       3.21150000
H       -1.76750000      -2.17590000       1.95760000
H        1.79020000      -2.39610000       1.86110000
