18
Properties=species:S:1:pos:R:3 gdb_15674=T pbc="F F F"
C       -0.16920000       1.52860000      -0.06490000
C       -0.03590000       0.04120000       0.00810000
C        0.07600000      -0.83500000      -0.98740000
C        0.16260000      -2.23460000      -0.45390000
O        0.07920000      -2.09230000       0.96530000
C       -0.01300000      -0.70500000       1.32060000
C        1.17650000      -0.37570000       2.23120000
O        1.22360000      -1.25960000       3.33070000
H        0.66520000       2.03310000       0.43730000
H       -0.19850000       1.87550000      -1.10070000
H       -1.08530000       1.86780000       0.43480000
H        0.09770000      -0.60400000      -2.04560000
H       -0.66040000      -2.87510000      -0.80740000
H        1.10300000      -2.73830000      -0.72730000
H       -0.93930000      -0.55490000       1.89910000
H        2.10220000      -0.41810000       1.63310000
H        1.07980000       0.63810000       2.63550000
H        1.13060000      -2.14300000       2.95210000
