18
Properties=species:S:1:pos:R:3 gdb_86587=T pbc="F F F"
N       -0.24060000       1.88340000       0.06770000
H       -0.33510000       1.04540000      -0.50540000
H        1.46150000       1.55490000       0.70980000
H       -0.67590000       2.65160000      -0.42880000
C       -0.88640000       1.62790000       1.34680000
C       -1.80160000       0.36560000       1.49640000
O       -1.42460000      -0.63670000       0.56470000
C       -1.21260000       0.16410000       2.91350000
C       -0.00490000       1.04340000       2.50490000
C        1.20040000       0.22900000       2.03910000
O        1.44330000      -0.88270000       2.44060000
O        1.99480000       0.85420000       1.16000000
H       -1.39760000       2.52840000       1.69590000
H       -2.88040000       0.51640000       1.39800000
H       -0.77400000      -1.21940000       0.97340000
H       -1.83080000       0.62660000       3.68590000
H       -0.97430000      -0.86080000       3.20540000
H        0.35860000       1.77540000       3.23230000
