16
Properties=species:S:1:pos:R:3 gdb_6304=T pbc="F F F"
C        0.14700000       1.75230000       0.19290000
C        0.08520000       0.23480000      -0.04980000
N        0.69990000      -0.16010000      -1.30650000
C       -0.04890000      -0.67230000      -2.33850000
C        0.75370000      -1.12150000      -3.54590000
O       -1.25930000      -0.76780000      -2.27410000
C        0.69890000      -0.50120000       1.06900000
N        1.20540000      -1.05840000       1.94560000
H        1.18290000       2.10050000       0.23660000
H       -0.36540000       2.26500000      -0.62420000
H       -0.34140000       2.00910000       1.13650000
H       -0.96090000      -0.07810000      -0.13800000
H        1.70370000      -0.12700000      -1.38190000
H        0.96640000      -2.19180000      -3.45460000
H        0.15030000      -0.97340000      -4.44200000
H        1.70360000      -0.59020000      -3.64970000
