18
Properties=species:S:1:pos:R:3 gdb_24129=T pbc="F F F"
C       -0.21490000       1.62800000      -0.72610000
N       -0.82920000       0.36670000      -0.27730000
C        0.01170000      -0.81090000      -0.10300000
C       -0.57310000      -0.11140000       1.07640000
C        1.17620000       1.95080000      -0.28360000
C        2.40090000       1.80690000      -0.86500000
C        3.36620000       2.30720000       0.06790000
C        2.65800000       2.71830000       1.15050000
O        1.32860000       2.51080000       0.95780000
H       -0.22200000       1.60970000      -1.82090000
H       -0.88540000       2.43460000      -0.40940000
H       -0.41420000      -1.74360000      -0.46260000
H        1.08480000      -0.70700000      -0.24970000
H        0.11030000       0.45120000       1.70690000
H       -1.43620000      -0.52440000       1.59190000
H        2.59010000       1.40280000      -1.84770000
H        4.43650000       2.35700000      -0.05650000
H        2.93000000       3.16320000       2.09350000
