20
Properties=species:S:1:pos:R:3 gdb_83603=T pbc="F F F"
C       -0.03700000       1.40660000       0.18290000
N       -0.03940000      -0.00710000      -0.09930000
C       -1.11160000      -1.00090000      -0.06610000
C       -1.53580000      -1.44760000       1.36150000
C       -0.40610000      -2.51980000       1.36120000
C        0.00380000      -2.10810000      -0.09320000
C        0.18070000      -3.17120000      -1.15020000
C        0.99210000      -0.92170000      -0.06660000
O        2.18750000      -0.78340000       0.00230000
H        1.00490000       1.73160000       0.23710000
H       -0.54480000       1.97390000      -0.60550000
H       -0.52540000       1.63020000       1.14040000
H       -1.87700000      -0.88110000      -0.83610000
H       -1.47260000      -0.66970000       2.12650000
H       -2.53850000      -1.88040000       1.39260000
H        0.37890000      -2.40910000       2.11240000
H       -0.78660000      -3.54300000       1.41150000
H       -0.65300000      -3.88150000      -1.14790000
H        0.25440000      -2.73240000      -2.15080000
H        1.10300000      -3.73310000      -0.96690000
