17
Properties=species:S:1:pos:R:3 gdb_5255=T pbc="F F F"
C       -0.00640000       1.53060000      -0.00100000
C       -0.04700000       0.00790000       0.06560000
N       -1.40370000      -0.48520000      -0.11780000
C       -1.60840000      -1.86050000      -0.03530000
C       -0.68100000      -2.86460000      -0.05850000
O       -1.30590000      -4.08610000      -0.02460000
C       -2.63400000      -3.84640000       0.03510000
C       -2.88970000      -2.51350000       0.02970000
H        1.01940000       1.89370000       0.10620000
H       -0.40440000       1.88830000      -0.95500000
H       -0.60100000       1.97710000       0.80470000
H        0.57200000      -0.41390000      -0.73670000
H        0.39270000      -0.34340000       1.01590000
H       -2.08380000       0.04130000       0.41460000
H        0.39280000      -2.88860000      -0.10850000
H       -3.26890000      -4.71650000       0.07410000
H       -3.85840000      -2.03880000       0.05920000
