19
Properties=species:S:1:pos:R:3 gdb_12075=T pbc="F F F"
C        0.01560000       1.56160000       0.12630000
C       -0.10240000       0.04020000      -0.02370000
C        0.68670000      -0.51730000      -1.20890000
O        0.18950000      -0.01330000      -2.44060000
C        2.24840000      -0.51580000      -1.16520000
N        2.31860000      -1.99240000      -1.46120000
C        1.64690000      -2.64730000      -0.32590000
C        0.80210000      -2.03300000      -1.36720000
H        1.05990000       1.87440000       0.23970000
H       -0.40370000       2.08770000      -0.73850000
H       -0.53080000       1.91140000       1.00670000
H        0.24180000      -0.44190000       0.89780000
H       -1.15450000      -0.24000000      -0.15570000
H        0.34100000       0.93740000      -2.45870000
H        2.68270000       0.05390000      -1.98900000
H        2.73390000      -0.23540000      -0.22320000
H        1.74630000      -3.72850000      -0.34150000
H        1.72210000      -2.20410000       0.66510000
H        0.19920000      -2.60460000      -2.06520000
