24
Properties=species:S:1:pos:R:3 gdb_97433=T pbc="F F F"
C       -0.05260000       1.42550000      -0.03420000
N        0.04680000      -0.01830000      -0.03990000
C       -1.02720000      -0.67130000       0.00570000
O       -1.01620000      -2.01760000       0.00010000
C       -2.29110000      -2.66160000       0.07300000
C       -2.09260000      -4.18170000       0.01110000
C       -1.23050000      -4.64150000       1.20050000
C       -3.48360000      -4.83510000       0.08960000
C       -1.40920000      -4.56270000      -1.31440000
H        0.49970000       1.82980000       0.82200000
H        0.42040000       1.83150000      -0.93590000
H       -1.08700000       1.80510000       0.01280000
H       -2.03300000      -0.22280000       0.05090000
H       -2.79120000      -2.38290000       1.01150000
H       -2.92170000      -2.32740000      -0.76320000
H       -1.71290000      -4.40020000       2.15450000
H       -1.07850000      -5.72530000       1.16840000
H       -0.25170000      -4.15630000       1.18450000
H       -4.12160000      -4.52510000      -0.74580000
H       -3.39550000      -5.92550000       0.05210000
H       -3.99760000      -4.57590000       1.02210000
H       -0.43310000      -4.08010000      -1.40440000
H       -1.26460000      -5.64630000      -1.37410000
H       -2.01770000      -4.25930000      -2.17400000
