19
Properties=species:S:1:pos:R:3 gdb_4035=T pbc="F F F"
C       -0.16240000       1.52090000      -0.02950000
C       -0.13860000      -0.00720000      -0.12360000
C        0.79710000      -0.52050000      -1.22980000
O        2.13790000      -0.06680000      -1.04730000
C        0.75020000      -2.03000000      -1.37000000
C        1.33300000      -2.91770000      -0.30430000
N        0.20210000      -2.46630000      -2.43810000
O        0.19150000      -3.87070000      -2.47950000
H        0.84300000       1.91730000       0.13490000
H       -0.54360000       1.96290000      -0.95620000
H       -0.80410000       1.85500000       0.79100000
H        0.17180000      -0.43720000       0.83990000
H       -1.14580000      -0.39310000      -0.32020000
H        0.47930000      -0.10100000      -2.18890000
H        2.40740000      -0.28000000      -0.14720000
H        1.72220000      -2.34620000       0.54120000
H        0.57800000      -3.61890000       0.06420000
H        2.14500000      -3.52330000      -0.71890000
H       -0.22870000      -4.04430000      -3.32840000
