15
Properties=species:S:1:pos:R:3 gdb_15569=T pbc="F F F"
O       -0.09140000       1.46010000      -0.01320000
C        0.04980000       0.05270000      -0.03000000
C       -1.34850000      -0.59790000       0.00230000
C       -1.29320000      -1.79760000      -0.97440000
C       -0.09390000      -1.49750000      -1.83200000
C        0.64120000      -0.49930000      -1.32820000
C        1.85030000       0.02630000      -1.85380000
N        2.83810000       0.50650000      -2.22390000
H        0.78600000       1.85640000       0.02750000
H        0.67050000      -0.27550000       0.81880000
H       -1.65380000      -0.87980000       1.01140000
H       -2.05180000       0.15560000      -0.36320000
H       -1.14830000      -2.75020000      -0.44640000
H       -2.20830000      -1.91430000      -1.56480000
H        0.14890000      -2.05080000      -2.73190000
