23
Properties=species:S:1:pos:R:3 gdb_72138=T pbc="F F F"
C       -0.00740000       1.49530000      -0.02870000
C        0.01620000      -0.01830000      -0.03710000
C        0.51760000      -0.74040000      -1.29060000
C        0.31970000      -2.16540000      -0.73750000
C        1.15480000      -2.09660000       0.56240000
C        0.69450000      -0.75500000       1.18780000
C       -0.70490000      -0.89640000       1.83080000
C       -1.29660000      -0.78170000       0.40660000
C       -1.17770000      -2.12790000      -0.35270000
H        0.99710000       1.90770000      -0.18040000
H       -0.65010000       1.88560000      -0.82660000
H       -0.38510000       1.89080000       0.92060000
H       -0.09360000      -0.53110000      -2.17600000
H        1.56280000      -0.50890000      -1.52620000
H        0.59270000      -2.98560000      -1.40530000
H        0.98880000      -2.94840000       1.23080000
H        2.22340000      -2.07060000       0.32200000
H        1.47490000      -0.23970000       1.75330000
H       -0.91370000      -1.81270000       2.39450000
H       -0.96110000      -0.03530000       2.45450000
H       -2.26510000      -0.28980000       0.28600000
H       -1.79820000      -2.12450000      -1.25570000
H       -1.49070000      -2.98160000       0.25810000
