19
Properties=species:S:1:pos:R:3 gdb_39793=T pbc="F F F"
C       -0.01100000       1.51560000      -0.01070000
N        1.25660000       0.72120000       0.03840000
C       -0.01920000       0.04840000       0.00280000
C       -0.56500000      -1.02570000       0.96560000
C       -1.82190000      -1.06450000       0.03170000
C       -0.60580000      -1.01200000      -0.95140000
C        0.06050000      -2.04370000      -0.01260000
C        1.30580000      -2.81430000      -0.02030000
N       -0.03220000      -3.48540000      -0.07380000
H       -0.21670000       2.08650000       0.89080000
H       -0.26260000       2.02820000      -0.93620000
H        1.69880000       0.71380000      -0.87810000
H       -0.53260000      -1.02850000       2.05510000
H       -2.39040000      -1.99560000       0.02980000
H       -2.46700000      -0.18360000       0.05170000
H       -0.62430000      -1.00620000      -2.04120000
H        1.89530000      -2.91860000      -0.92740000
H        1.88020000      -2.87940000       0.90030000
H       -0.25890000      -3.87360000       0.83920000
