13
Properties=species:S:1:pos:R:3 gdb_47960=T pbc="F F F"
O       -0.09760000      -0.06550000      -0.13110000
C       -0.03210000       1.13640000      -0.02350000
C        1.20150000       1.88500000       0.00540000
C        2.20990000       2.54490000       0.03720000
C        3.45770000       3.32530000       0.05560000
C        3.19690000       4.77260000       0.00540000
C        2.99310000       5.95300000      -0.05380000
C        4.28960000       2.95660000       1.21200000
C        4.97750000       2.65080000       2.14550000
H       -0.94210000       1.76340000       0.06220000
H        4.01650000       3.05440000      -0.85500000
H        2.81070000       6.99860000      -0.09860000
H        5.58310000       2.38140000       2.97580000
