14
Properties=species:S:1:pos:R:3 gdb_132427=T pbc="F F F"
C        0.03340000       1.50170000      -0.00020000
C       -0.06790000       0.01700000       0.06280000
C       -1.11400000      -0.73950000      -0.31740000
N       -1.09740000      -2.12570000      -0.21290000
C       -0.04340000      -2.64240000       0.26090000
F        0.04220000      -3.96180000       0.38920000
C        1.15910000      -1.92320000       0.70960000
N        2.23020000      -2.39610000       1.18880000
O        1.05850000      -0.56000000       0.57040000
H        0.87880000       1.80390000      -0.62750000
H       -0.88280000       1.92940000      -0.41070000
H        0.20410000       1.91890000       0.99810000
H       -2.01220000      -0.29290000      -0.72110000
H        2.16440000      -3.41110000       1.23350000
