17
Properties=species:S:1:pos:R:3 gdb_18110=T pbc="F F F"
C       -0.04380000       1.42510000       0.24790000
C        1.38630000       1.96970000       0.07250000
C        2.29600000       0.76260000       0.33470000
O        2.64530000       0.66850000       1.74500000
C        2.04670000      -0.45830000       2.19540000
N        1.37100000      -1.18290000       1.40620000
C        1.42350000      -0.51380000       0.09080000
C        0.03990000       0.00990000      -0.35060000
H       -0.29870000       1.36980000       1.31190000
H       -0.79820000       2.05040000      -0.23620000
H        1.53620000       2.30390000      -0.96120000
H        1.63150000       2.80750000       0.72980000
H        3.23580000       0.79940000      -0.21990000
H        2.20780000      -0.65780000       3.24970000
H        1.84830000      -1.20730000      -0.63990000
H       -0.75870000      -0.65700000      -0.01910000
H        0.00140000       0.06360000      -1.44520000
