19
Properties=species:S:1:pos:R:3 gdb_98983=T pbc="F F F"
C       -0.15700000       1.45090000       0.24070000
C        0.00720000      -0.03080000      -0.08680000
C        0.80780000      -0.25900000      -1.36850000
O        1.25760000       0.63010000      -2.04280000
N        0.96080000      -1.62270000      -1.67310000
C        1.62830000      -2.19910000      -2.75910000
O        2.19060000      -1.57840000      -3.62430000
C        1.57430000      -3.73940000      -2.74400000
N        2.25550000      -4.38240000      -3.84920000
H        0.81620000       1.93040000       0.36870000
H       -0.67300000       1.97260000      -0.56860000
H       -0.73280000       1.57780000       1.16140000
H        0.51120000      -0.55980000       0.73350000
H       -0.97100000      -0.51770000      -0.19970000
H        0.53430000      -2.26920000      -1.02480000
H        2.00180000      -4.09290000      -1.79570000
H        0.52020000      -4.04930000      -2.73420000
H        1.86980000      -4.02740000      -4.72040000
H        3.22430000      -4.07400000      -3.85880000
