22
Properties=species:S:1:pos:R:3 gdb_93953=T pbc="F F F"
C       -0.27820000       1.42060000       0.08850000
C        0.07220000      -0.06470000       0.08530000
C        0.80710000      -0.55070000      -1.16790000
O        1.41440000      -1.78320000      -0.80690000
C        1.70050000      -1.79090000       0.59790000
C        1.06440000      -0.50460000       1.17740000
C        1.15950000      -3.06780000       1.19800000
C        1.97530000      -4.30260000       1.17640000
N        1.73670000      -3.59140000       2.44730000
H        0.62280000       2.03690000      -0.01080000
H       -0.94970000       1.67360000      -0.73900000
H       -0.77790000       1.70860000       1.01880000
H       -0.84840000      -0.65370000       0.18560000
H        0.14900000      -0.73600000      -2.02260000
H        1.56820000       0.18720000      -1.47610000
H        2.79360000      -1.78200000       0.74040000
H        1.82760000       0.26930000       1.31600000
H        0.59090000      -0.68030000       2.14670000
H        0.07600000      -3.16180000       1.14510000
H        1.49450000      -5.27320000       1.09840000
H        2.96260000      -4.24790000       0.72440000
H        2.56480000      -3.05190000       2.69370000
