15
Properties=species:S:1:pos:R:3 gdb_1233=T pbc="F F F"
C       -0.03630000       1.55310000       0.00740000
C        0.04180000       0.01220000      -0.00090000
C        0.71580000      -0.51210000      -1.28600000
C        0.72530000      -0.48430000       1.18930000
C        1.29810000      -0.89290000       2.17480000
C        1.94640000      -1.34960000       3.28080000
C        2.52070000      -1.75540000       4.26280000
H        0.96640000       1.98950000      -0.02420000
H       -0.59280000       1.90420000      -0.86710000
H       -0.53790000       1.91770000       0.90740000
H       -0.98630000      -0.37670000       0.02210000
H        1.74310000      -0.14300000      -1.35990000
H        0.74490000      -1.60450000      -1.29870000
H        0.16220000      -0.16880000      -2.16550000
H        3.02700000      -2.11120000       5.12520000
