21
Properties=species:S:1:pos:R:3 gdb_109242=T pbc="F F F"
C        0.03270000       1.56530000       0.05870000
C       -0.01390000       0.02790000      -0.03950000
C       -1.41300000      -0.51790000      -0.04110000
C       -2.11030000      -0.97350000      -1.08770000
C       -3.51680000      -1.40070000      -0.72140000
C       -3.55630000      -1.22450000       0.79340000
C       -2.59070000      -2.04090000       1.63150000
C       -2.23250000      -0.63100000       1.21720000
O       -2.16950000       0.38170000       2.18100000
H        1.06730000       1.92150000       0.09480000
H       -0.45450000       2.01860000      -0.81010000
H       -0.49060000       1.91290000       0.95230000
H        0.50120000      -0.29340000      -0.95160000
H        0.54730000      -0.40190000       0.80220000
H       -1.72020000      -1.06610000      -2.09600000
H       -4.27060000      -0.77870000      -1.22280000
H       -3.72400000      -2.43640000      -1.02180000
H       -4.46910000      -0.89700000       1.27560000
H       -2.87800000      -2.18020000       2.66930000
H       -2.05780000      -2.87280000       1.18100000
H       -1.48060000       0.14910000       2.81210000
