19
Properties=species:S:1:pos:R:3 gdb_96218=T pbc="F F F"
O       -0.07090000       1.43190000       0.06790000
C        0.00110000       0.01940000       0.01860000
C       -1.42770000      -0.52270000       0.06960000
C       -1.46940000      -2.01990000      -0.25090000
C       -0.94080000      -2.29540000      -1.66770000
C        0.28880000      -1.49720000      -1.97680000
C        0.72090000      -0.46590000      -1.23340000
C        1.96470000       0.20500000      -1.63180000
O        2.47090000       1.13980000      -1.03930000
H        0.83740000       1.75160000      -0.03400000
H        0.55890000      -0.36310000       0.89270000
H       -1.85540000      -0.31580000       1.05490000
H       -2.02140000       0.03930000      -0.66180000
H       -0.85390000      -2.56710000       0.47450000
H       -2.48810000      -2.40650000      -0.14990000
H       -0.73230000      -3.36300000      -1.81170000
H       -1.70770000      -2.04910000      -2.41840000
H        0.85660000      -1.77710000      -2.86450000
H        2.44760000      -0.21020000      -2.54340000
