22
Properties=species:S:1:pos:R:3 gdb_40292=T pbc="F F F"
C       -0.03660000       1.53900000      -0.05800000
N        1.23220000       0.79630000       0.01410000
C       -0.04090000       0.05300000       0.02500000
C       -0.37720000      -0.64240000       1.33480000
C        0.60700000      -1.75620000       1.75810000
C        1.23640000      -2.58930000       0.62220000
C        0.35750000      -2.86910000      -0.60360000
O        0.37490000      -1.80960000      -1.55040000
C       -0.43920000      -0.69810000      -1.23750000
H       -0.27370000       2.12710000       0.82470000
H       -0.31770000       2.00770000      -0.99830000
H        1.65810000       0.73430000      -0.90830000
H       -0.42580000       0.09860000       2.13900000
H       -1.39030000      -1.05420000       1.24220000
H        1.42320000      -1.30540000       2.33100000
H        0.08060000      -2.42180000       2.45260000
H        2.13330000      -2.08540000       0.24590000
H        1.57180000      -3.54770000       1.03670000
H        0.75290000      -3.73510000      -1.14420000
H       -0.67970000      -3.10780000      -0.31380000
H       -1.49400000      -1.01190000      -1.15020000
H       -0.35970000      -0.03430000      -2.10540000
