17
Properties=species:S:1:pos:R:3 gdb_67114=T pbc="F F F"
O        0.00900000       1.37390000       0.00080000
C        0.13060000       0.00020000      -0.02770000
C        0.39760000      -0.97420000       1.16170000
C       -1.12840000      -0.96290000       1.57500000
C       -1.09820000      -0.93640000       0.03990000
O       -1.85900000      -0.89840000      -1.13130000
C       -0.76160000      -0.88000000      -2.10390000
C        0.52030000      -0.92110000      -1.21270000
C        0.12200000      -1.88660000      -0.07010000
H        0.88840000       1.76000000       0.07330000
H        1.25760000      -1.00830000       1.82730000
H       -1.51280000      -1.86770000       2.05350000
H       -1.48800000      -0.06210000       2.07780000
H       -0.85610000      -1.75230000      -2.75920000
H       -0.83180000       0.03540000      -2.70030000
H        1.48320000      -0.92220000      -1.72740000
H        0.06010000      -2.97170000      -0.07770000
