17
Properties=species:S:1:pos:R:3 gdb_130225=T pbc="F F F"
N       -0.07540000       1.36220000       0.31020000
C        0.02470000       0.00220000       0.06490000
N       -1.03950000      -0.71030000      -0.23660000
O       -0.57390000      -2.03640000      -0.32450000
C        0.74930000      -2.06160000      -0.08970000
C        1.19880000      -0.80280000       0.16530000
C        1.42350000      -3.36240000      -0.14230000
C        0.70720000      -4.61630000       0.32840000
C        0.97180000      -4.42120000      -1.13340000
H        0.71470000       1.89890000      -0.01770000
H       -0.95020000       1.75240000      -0.01520000
H        2.20210000      -0.49240000       0.40540000
H        2.48680000      -3.30170000       0.05850000
H        1.29390000      -5.34720000       0.87300000
H       -0.31080000      -4.49280000       0.67810000
H        0.13180000      -4.16670000      -1.76870000
H        1.74300000      -5.01620000      -1.60920000
