17
Properties=species:S:1:pos:R:3 gdb_113606=T pbc="F F F"
O       -0.17410000       1.41220000      -0.51880000
C       -0.04330000       0.13580000       0.09240000
C       -1.39650000      -0.52280000       0.06290000
C       -1.85510000      -1.25390000      -1.15980000
C       -1.52000000      -2.04480000       0.10150000
C       -0.36870000      -2.88930000       0.14940000
C        0.59160000      -3.62700000       0.21200000
C        1.67340000      -4.44790000       0.27400000
C        2.63500000      -5.17730000       0.33100000
H        0.67120000       1.86490000      -0.44410000
H        0.68590000      -0.49440000      -0.43790000
H        0.30130000       0.22600000       1.13460000
H       -2.15840000       0.00770000       0.62620000
H       -2.89880000      -1.19960000      -1.44680000
H       -1.15780000      -1.33600000      -1.98560000
H       -2.37180000      -2.42240000       0.66060000
H        3.47890000      -5.81920000       0.37970000
