18
Properties=species:S:1:pos:R:3 gdb_50326=T pbc="F F F"
O       -0.79350000       0.66910000      -0.46890000
C       -0.02460000       1.11170000       0.34580000
C        1.15160000       2.01840000       0.02960000
C        1.04960000       2.81440000      -1.29410000
C        0.78050000       4.23310000      -0.78460000
C       -0.53600000       4.25920000       0.05820000
C        0.32080000       4.02910000       1.31140000
C        1.57600000       4.31770000       0.55450000
N        1.36560000       2.99630000       1.12590000
H       -0.11440000       0.86170000       1.42620000
H        2.03000000       1.35650000       0.02610000
H        1.98790000       2.76270000      -1.85520000
H        0.24740000       2.42510000      -1.92640000
H        0.90160000       5.02580000      -1.52140000
H       -0.98140000       5.25700000       0.08310000
H       -1.31220000       3.52890000      -0.19100000
H        0.04990000       4.26400000       2.33470000
H        2.45940000       4.89580000       0.79790000
