11
Properties=species:S:1:pos:R:3 gdb_129145=T pbc="F F F"
N       -0.22340000       1.23750000      -0.45320000
C       -0.78780000       0.22410000      -0.11420000
N        2.44040000      -0.78950000       0.53850000
N        3.03890000      -1.71040000       0.52560000
O       -0.19190000      -2.52950000      -0.34210000
C       -1.28640000      -2.06720000      -0.12000000
N       -1.53910000      -0.71090000       0.16090000
C       -2.48760000      -2.86860000      -0.07820000
C       -3.46150000      -3.57340000      -0.06300000
H        0.61780000       1.58470000      -0.01570000
H       -4.32280000      -4.19610000      -0.04920000
