12
Properties=species:S:1:pos:R:3 gdb_555=T pbc="F F F"
N        0.03840000      -1.20460000      -0.03020000
C        0.00900000      -0.04880000       0.00720000
C        0.01550000       1.41760000       0.04110000
C       -0.20270000       2.01080000       1.46830000
C        1.33190000       2.21250000       1.50770000
N        1.36380000       2.03490000       0.03320000
H       -0.64510000       1.78600000      -0.75080000
H       -0.75980000       2.94710000       1.42710000
H       -0.64420000       1.34800000       2.21070000
H        1.70340000       3.18430000       1.84480000
H        1.84120000       1.42070000       2.07160000
H        2.10700000       1.44970000      -0.33290000
