17
Properties=species:S:1:pos:R:3 gdb_57742=T pbc="F F F"
C       -0.01600000       1.55600000       0.03590000
C       -0.02430000       0.01380000      -0.02570000
C       -1.46080000      -0.54720000       0.03830000
C        0.67280000      -0.46640000      -1.21300000
C        1.24950000      -0.86360000      -2.20450000
C        1.88700000      -1.30290000      -3.31210000
C        2.46190000      -1.69890000      -4.31110000
C        3.10020000      -2.13870000      -5.42000000
C        3.67050000      -2.53180000      -6.41200000
H        1.00450000       1.94630000       0.01610000
H       -0.55950000       1.97810000      -0.81450000
H       -0.50000000       1.89460000       0.95720000
H        0.52270000      -0.36090000       0.85140000
H       -2.05070000      -0.19260000      -0.81200000
H       -1.45890000      -1.63980000       0.02020000
H       -1.94950000      -0.21540000       0.95960000
H        4.17160000      -2.87700000      -7.28200000
