16
Properties=species:S:1:pos:R:3 gdb_85397=T pbc="F F F"
O       -0.10700000       1.44770000      -0.01320000
C        0.00280000       0.03740000       0.02280000
C       -1.41200000      -0.52610000      -0.00780000
C       -1.40860000      -2.02770000      -0.04740000
N       -2.26490000      -2.72750000       0.55540000
O       -0.42050000      -2.64720000      -0.80630000
C        0.67630000      -2.01200000      -1.34870000
O        1.48490000      -2.67760000      -1.92370000
C        0.75990000      -0.50680000      -1.19070000
H        0.77200000       1.82650000       0.09030000
H        0.50380000      -0.28950000       0.94790000
H       -1.99580000      -0.20860000       0.85580000
H       -1.91130000      -0.14030000      -0.90660000
H       -2.10170000      -3.72170000       0.38330000
H        0.32380000      -0.05710000      -2.09230000
H        1.82110000      -0.24550000      -1.18230000
