11
Properties=species:S:1:pos:R:3 gdb_133384=T pbc="F F F"
N        0.07730000       1.40730000       0.06020000
C       -0.02270000       0.04700000      -0.03510000
N       -1.20550000      -0.48990000      -0.06030000
O       -1.23730000      -1.88230000      -0.27890000
C       -0.12510000      -2.64340000      -0.41310000
O       -0.18530000      -3.82560000      -0.60230000
C        1.13400000      -1.85960000      -0.29390000
F        2.22930000      -2.56700000      -0.37490000
N        1.20350000      -0.60610000      -0.12430000
H        0.93830000       1.75310000       0.45270000
H       -0.76380000       1.89820000       0.32120000
