19
Properties=species:S:1:pos:R:3 gdb_32102=T pbc="F F F"
C        0.17920000       1.62440000       0.07950000
C       -0.00010000       0.10000000      -0.01380000
C        0.71020000      -0.48140000      -1.20980000
N        0.22690000      -0.15430000      -2.41770000
C        0.87130000      -0.66090000      -3.46710000
N        1.93980000      -1.45540000      -3.45990000
C        2.42530000      -1.78420000      -2.25340000
C        3.63080000      -2.68250000      -2.22840000
C        1.82620000      -1.30760000      -1.08880000
H        1.23220000       1.89010000       0.21790000
H       -0.17410000       2.10170000      -0.83790000
H       -0.38700000       2.02920000       0.92330000
H        0.36130000      -0.38190000       0.90060000
H       -1.06750000      -0.12980000      -0.10730000
H        0.47700000      -0.39610000      -4.44630000
H        3.96120000      -2.89210000      -1.20850000
H        3.40450000      -3.62910000      -2.72940000
H        4.45490000      -2.22070000      -2.78100000
H        2.21700000      -1.57430000      -0.11280000
