15
Properties=species:S:1:pos:R:3 gdb_97786=T pbc="F F F"
O        0.07860000       1.35350000      -0.54060000
C       -0.00090000       0.17410000       0.24430000
C       -1.34070000      -0.41350000       0.27700000
C       -2.44520000      -0.89260000       0.24090000
C       -3.75650000      -1.47170000       0.24180000
N       -4.34270000      -1.85020000      -1.05710000
C       -3.99190000      -2.92050000      -0.11450000
C       -2.90140000      -3.78810000      -0.48740000
N       -2.03450000      -4.50440000      -0.75310000
H       -0.23790000       1.13600000      -1.42400000
H        0.71550000      -0.59010000      -0.09510000
H        0.30240000       0.46570000       1.25570000
H       -4.43670000      -1.08730000       0.99960000
H       -5.34900000      -1.70240000      -1.04490000
H       -4.78820000      -3.42470000       0.42690000
