17
Properties=species:S:1:pos:R:3 gdb_48957=T pbc="F F F"
O       -0.07760000       0.01990000      -0.27210000
C        0.02410000       1.13700000       0.18060000
C        1.26360000       1.94750000       0.13510000
C        1.59130000       3.15710000       1.02720000
C        2.64000000       3.43480000      -0.06940000
O        3.55340000       2.33900000       0.09910000
C        2.65190000       1.28740000      -0.27640000
C        2.36370000       1.60950000      -1.75790000
C        1.65600000       2.82460000      -1.15020000
H       -0.85150000       1.64480000       0.64620000
H        0.77000000       3.87950000       1.02180000
H        1.96630000       2.99500000       2.04030000
H        3.17020000       4.37810000      -0.18590000
H        2.98310000       0.31840000       0.08870000
H        3.23050000       1.76210000      -2.40480000
H        1.64820000       0.91440000      -2.20060000
H        0.94980000       3.47630000      -1.66070000
