17
Properties=species:S:1:pos:R:3 gdb_107224=T pbc="F F F"
O        0.05270000       1.35180000      -0.34920000
C        0.06290000       0.02270000       0.14620000
C       -1.33030000      -0.54300000       0.23230000
C       -2.35930000       0.05030000       1.20000000
C       -3.35660000      -1.07310000       1.47000000
O       -4.09600000      -1.51970000       0.33250000
C       -2.95430000      -2.28010000       0.72400000
C       -1.69640000      -1.94400000      -0.06070000
O       -1.88620000      -0.92310000      -1.04130000
H       -0.35300000       1.31990000      -1.22320000
H        0.67920000      -0.64010000      -0.47920000
H        0.51860000       0.07270000       1.14090000
H       -1.86510000       0.33970000       2.13420000
H       -2.84000000       0.94180000       0.78810000
H       -3.89700000      -1.10610000       2.41350000
H       -3.13960000      -3.29810000       1.05420000
H       -0.97820000      -2.72140000      -0.30760000
