17
Properties=species:S:1:pos:R:3 gdb_67059=T pbc="F F F"
C       -0.11140000       1.49280000      -0.17190000
C       -0.04040000      -0.00830000      -0.00660000
N       -1.19870000      -0.63500000       0.95490000
C       -0.35780000      -1.91110000       0.89240000
C        0.69050000      -0.80210000       1.00780000
C       -0.23670000      -0.20310000       2.11450000
O        1.89680000      -0.94670000       0.14650000
C        1.03130000      -0.64170000      -0.94330000
N        1.22960000      -0.74300000      -2.17300000
H        0.88660000       1.94430000      -0.14480000
H       -0.54430000       1.71880000      -1.15120000
H       -0.73610000       1.96710000       0.58750000
H       -0.50980000      -2.57650000       1.74350000
H       -0.44170000      -2.43360000      -0.06230000
H       -0.19920000       0.86700000       2.30450000
H       -0.41010000      -0.78310000       3.02250000
H        2.16040000      -1.11150000      -2.37870000
