20
Properties=species:S:1:pos:R:3 gdb_75013=T pbc="F F F"
C       -0.09720000       1.49980000      -0.09520000
C        0.02330000       0.01380000      -0.11300000
N       -0.25030000      -0.75450000      -1.08800000
C        0.03270000      -2.12860000      -0.64550000
C        1.21030000      -2.76070000      -1.42000000
C        2.45820000      -2.34860000      -0.62040000
C        1.99350000      -2.46030000       0.84320000
C        0.53950000      -1.96770000       0.82700000
O        0.46930000      -0.53740000       1.05090000
H        0.87350000       1.95680000       0.12160000
H       -0.46020000       1.85040000      -1.06050000
H       -0.78690000       1.81430000       0.69450000
H       -0.87800000      -2.72790000      -0.73610000
H        1.10790000      -3.85260000      -1.41760000
H        1.22280000      -2.42720000      -2.45980000
H        3.33140000      -2.96920000      -0.83770000
H        2.72770000      -1.31230000      -0.85270000
H        2.00610000      -3.50980000       1.16170000
H        2.60130000      -1.89240000       1.55200000
H       -0.08350000      -2.44150000       1.58890000
