18
Properties=species:S:1:pos:R:3 gdb_53795=T pbc="F F F"
C        0.31080000       1.33880000      -0.01570000
C       -0.05430000      -0.03260000       0.49400000
O        0.29540000      -0.47450000       1.56300000
C       -1.00370000      -0.85250000      -0.41360000
O       -1.73400000      -0.24560000      -1.17290000
C       -1.06070000      -2.34720000      -0.28320000
C        0.17270000      -3.12000000       0.13600000
C       -2.43220000      -2.85080000       0.07950000
N       -1.92680000      -3.00410000      -1.27770000
H        0.89010000       1.87030000       0.73940000
H        0.89540000       1.24680000      -0.93860000
H       -0.59450000       1.89180000      -0.27940000
H        0.46900000      -2.87210000       1.15550000
H       -0.04010000      -4.18900000       0.06570000
H        1.01610000      -2.90810000      -0.53030000
H       -2.49610000      -3.76280000       0.66710000
H       -3.21100000      -2.11720000       0.26940000
H       -2.33410000      -2.27450000      -1.86360000
