17
Properties=species:S:1:pos:R:3 gdb_103482=T pbc="F F F"
O        0.12200000       0.89380000       0.77770000
C       -0.18870000       0.28370000      -0.47970000
C       -1.46290000      -0.51340000      -0.35410000
O       -2.50470000       0.23470000       0.23520000
C       -1.97030000      -1.51440000      -1.35480000
O       -0.86550000      -2.24410000      -1.90870000
C       -0.56640000      -2.84880000      -0.61710000
C       -1.60360000      -1.97770000       0.05710000
O       -2.32430000      -2.36430000       1.15700000
H        0.42810000       0.20090000       1.37320000
H       -0.33990000       1.11490000      -1.17640000
H        0.63350000      -0.33120000      -0.85930000
H       -2.05200000       0.82000000       0.86110000
H       -2.88280000      -1.41880000      -1.93240000
H       -0.83420000      -3.91160000      -0.61610000
H        0.48580000      -2.73130000      -0.33090000
H       -2.82920000      -1.58020000       1.42060000
