20
Properties=species:S:1:pos:R:3 gdb_95703=T pbc="F F F"
C        0.31540000       1.66350000       0.07450000
C        0.01080000       0.17070000       0.03800000
C        0.10080000      -0.39980000      -1.38900000
N       -0.17440000      -1.81930000      -1.55020000
C        0.69290000      -2.75120000      -0.83060000
C        0.33210000      -2.88220000       0.64850000
O       -0.11690000      -3.90030000       1.12260000
C        0.50420000      -1.64040000       1.53580000
O        0.95610000      -0.47590000       0.89180000
H        1.33320000       1.85130000      -0.28200000
H       -0.38120000       2.21960000      -0.56020000
H        0.23740000       2.04420000       1.09580000
H       -1.00500000      -0.00730000       0.43040000
H       -0.59040000       0.15210000      -2.03730000
H        1.11540000      -0.20780000      -1.76290000
H       -1.15090000      -2.03200000      -1.37780000
H        0.61180000      -3.74840000      -1.27390000
H        1.72700000      -2.40260000      -0.93250000
H       -0.44490000      -1.47380000       2.06940000
H        1.25440000      -1.89460000       2.29370000
