17
Properties=species:S:1:pos:R:3 gdb_66675=T pbc="F F F"
C       -0.04650000       1.51560000      -0.06550000
C       -0.00730000       0.02530000       0.00150000
C       -0.03670000      -1.02080000      -1.10610000
C        0.82320000      -1.97150000      -0.22430000
C        0.85740000      -0.95190000       0.86690000
C       -0.30600000      -1.97170000       0.83440000
C       -0.57710000      -3.01190000       1.81730000
O        0.28560000      -3.64640000       2.38770000
C       -1.13400000      -1.00080000      -0.04630000
H        0.92920000       1.93070000      -0.34340000
H       -0.77440000       1.84600000      -0.81450000
H       -0.33680000       1.95370000       0.89640000
H       -0.10780000      -0.89070000      -2.17740000
H        1.49160000      -2.79510000      -0.43450000
H        1.55660000      -0.81790000       1.68140000
H       -1.65670000      -3.19670000       2.02010000
H       -2.20000000      -0.84940000      -0.15760000
