16
Properties=species:S:1:pos:R:3 gdb_5910=T pbc="F F F"
C        0.09260000       1.58560000       0.00480000
C        0.02380000       0.05460000      -0.00270000
O        0.70680000      -0.36960000       1.17340000
C       -1.45510000      -0.45150000       0.01090000
C       -2.21450000      -0.00450000       1.16970000
C       -2.85100000       0.36390000       2.12010000
C        0.67890000      -0.49340000      -1.20150000
C        1.20290000      -0.98030000      -2.16790000
H        1.13650000       1.90480000       0.00480000
H       -0.40510000       1.99840000      -0.87600000
H       -0.39750000       1.96220000       0.90510000
H        0.80010000      -1.32800000       1.13590000
H       -1.94470000      -0.12430000      -0.91390000
H       -1.43820000      -1.54790000      -0.02440000
H       -3.41120000       0.68630000       2.96250000
H        1.67850000      -1.39600000      -3.02210000
