16
Properties=species:S:1:pos:R:3 gdb_123773=T pbc="F F F"
C        0.10200000       1.61800000       0.21670000
C        1.28180000       0.73340000      -0.15640000
C       -0.06660000       0.14200000       0.08290000
C       -0.55250000      -0.94050000       1.11230000
C       -1.33910000      -1.48940000      -0.07460000
N       -2.15850000      -2.32490000      -0.68860000
C       -2.15050000      -1.78140000      -1.95250000
N       -1.39550000      -0.69060000      -2.14870000
N       -0.89690000      -0.54990000      -0.90240000
H        0.06930000       2.04320000       1.21410000
H       -0.32690000       2.24290000      -0.55860000
H        1.63760000       0.76990000      -1.17990000
H        2.05150000       0.55680000       0.58710000
H        0.23610000      -1.58960000       1.49860000
H       -1.15150000      -0.54950000       1.93740000
H       -2.72430000      -2.20560000      -2.76320000
