15
Properties=species:S:1:pos:R:3 gdb_8640=T pbc="F F F"
C       -0.08900000       1.47680000       0.09710000
N       -0.01310000       0.02270000      -0.03320000
C        0.71570000      -0.48490000      -1.20050000
C        2.20290000      -0.04600000      -1.32370000
C        0.67240000      -1.96340000      -1.12870000
N        0.68930000      -3.11370000      -1.03520000
C       -0.00400000      -0.05790000      -2.42540000
N       -0.52970000       0.31470000      -3.38310000
H        0.88040000       1.98490000       0.21090000
H       -0.59610000       1.89340000      -0.77780000
H       -0.69870000       1.70430000       0.97460000
H        0.37940000      -0.40050000       0.80070000
H        2.74530000      -0.36550000      -0.43030000
H        2.66790000      -0.49960000      -2.20170000
H        2.26350000       1.03950000      -1.41740000
