19
Properties=species:S:1:pos:R:3 gdb_70614=T pbc="F F F"
C       -0.44630000       1.40410000       0.01090000
C       -0.02580000      -0.04400000       0.02070000
C       -0.30400000      -0.94260000       1.22420000
C        1.11080000      -0.60860000       0.83300000
O        1.84060000      -1.55850000       0.09780000
C        1.07280000      -1.92530000      -1.04650000
C        0.08550000      -0.78500000      -1.28880000
C       -0.91440000      -0.79640000      -2.35720000
O        0.26700000       0.00970000      -2.46680000
H        0.14180000       1.97590000      -0.71130000
H       -1.50420000       1.51080000      -0.25700000
H       -0.31410000       1.85180000       1.00030000
H       -0.70610000      -0.44960000       2.10320000
H       -0.67130000      -1.95210000       1.07210000
H        1.74850000      -0.01160000       1.47430000
H        1.74470000      -2.05720000      -1.89880000
H        0.54430000      -2.87230000      -0.86590000
H       -0.96790000      -1.64090000      -3.04430000
H       -1.84610000      -0.24600000      -2.23320000
