14
Properties=species:S:1:pos:R:3 gdb_128177=T pbc="F F F"
C       -0.09780000       1.49500000       0.07260000
N       -0.03120000       0.05370000      -0.12920000
C       -1.13820000      -0.72560000      -0.04520000
C       -1.30740000      -2.09620000       0.00970000
O       -2.64730000      -2.31960000       0.03490000
N       -3.27290000      -1.09640000      -0.00090000
N       -2.40270000      -0.17210000      -0.04530000
C       -0.36820000      -3.19720000       0.04360000
O       -0.65470000      -4.37210000       0.09460000
H        0.86480000       1.92670000      -0.20730000
H       -0.87230000       1.91980000      -0.56800000
H       -0.32370000       1.76740000       1.11160000
H        0.84670000      -0.39240000       0.07910000
H        0.69280000      -2.85820000       0.01730000
