18
Properties=species:S:1:pos:R:3 gdb_54386=T pbc="F F F"
N        0.06330000       1.10520000      -0.51600000
C       -0.10410000       0.06030000       0.34480000
O        0.71480000      -0.23630000       1.19390000
C       -1.38330000      -0.70950000       0.17180000
C       -2.56440000      -0.51850000      -0.83200000
C       -2.93570000      -1.73450000       0.04750000
O       -4.11230000      -2.43550000      -0.11790000
C       -1.46800000      -2.24050000      -0.11580000
C       -2.44990000      -0.92410000       1.29000000
H        0.90270000       1.65670000      -0.44460000
H       -0.62110000       1.34030000      -1.21200000
H       -3.18000000       0.37660000      -0.70520000
H       -2.35590000      -0.72820000      -1.88490000
H       -4.13860000      -3.14710000       0.53100000
H       -1.16660000      -2.56300000      -1.11570000
H       -1.07100000      -2.89230000       0.66550000
H       -2.11560000      -1.49170000       2.16120000
H       -3.04190000      -0.04870000       1.56920000
