17
Properties=species:S:1:pos:R:3 gdb_51596=T pbc="F F F"
O        0.28350000       0.02170000       0.38790000
C        0.39830000       1.20130000       0.52310000
O        0.80550000       2.00890000      -0.48310000
C        0.86020000       3.39410000      -0.19860000
C        2.00650000       3.93300000       0.61820000
C        1.94940000       4.17080000      -0.87400000
C        2.93390000       3.46960000      -1.80070000
C        4.21150000       4.16990000      -1.88470000
C        5.25510000       4.76250000      -1.94590000
H        0.19220000       1.75510000       1.45780000
H       -0.12230000       3.84800000      -0.10680000
H        1.81720000       4.75610000       1.29770000
H        2.73790000       3.21280000       0.97010000
H        1.67780000       5.17220000      -1.19270000
H        3.09150000       2.44130000      -1.45880000
H        2.49350000       3.38690000      -2.80260000
H        6.18300000       5.27500000      -2.00530000
