27
Properties=species:S:1:pos:R:3 gdb_123247=T pbc="F F F"
C       -0.04670000       1.60730000       0.05870000
C       -0.00780000       0.07720000       0.01810000
C        0.69940000      -0.47630000      -1.22380000
C        0.74320000      -2.00710000      -1.27330000
C        1.45050000      -2.55860000      -2.51560000
C        1.49410000      -4.08990000      -2.56460000
C        2.20240000      -4.63410000      -3.80860000
C        2.24360000      -6.15540000      -3.85390000
O        2.91920000      -6.54350000      -5.04160000
H        0.96480000       2.02890000       0.05650000
H       -0.57350000       2.01300000      -0.81230000
H       -0.55710000       1.97210000       0.95570000
H        0.49440000      -0.30100000       0.91850000
H       -1.03220000      -0.31690000       0.05640000
H        0.19750000      -0.09740000      -2.12540000
H        1.72450000      -0.08160000      -1.26300000
H        1.24510000      -2.38530000      -0.37150000
H       -0.28220000      -2.40110000      -1.23410000
H        0.94880000      -2.18150000      -3.41760000
H        2.47590000      -2.16570000      -2.55520000
H        1.99590000      -4.46620000      -1.66200000
H        0.46810000      -4.48210000      -2.52490000
H        1.70210000      -4.27370000      -4.71610000
H        3.23210000      -4.25800000      -3.85190000
H        2.76000000      -6.54000000      -2.95860000
H        1.21630000      -6.55590000      -3.83140000
H        2.94420000      -7.50420000      -5.07260000
