14
Properties=species:S:1:pos:R:3 gdb_55609=T pbc="F F F"
N       -0.30280000       1.35400000       0.00910000
C        0.11640000       0.03890000       0.06420000
O        1.26220000      -0.30350000       0.19260000
N       -0.98050000      -0.85020000       0.01350000
C       -0.89660000      -2.22360000      -0.05610000
O        0.07540000      -2.90310000      -0.20140000
O       -2.19290000      -2.69610000       0.05670000
C       -2.36910000      -4.05560000      -0.00030000
N       -3.54230000      -4.49850000       0.08740000
H        0.45710000       2.00930000      -0.09200000
H       -1.13720000       1.58660000      -0.50700000
H       -1.91150000      -0.48520000       0.14570000
H       -1.42950000      -4.59570000      -0.11790000
H       -3.53060000      -5.51580000       0.03340000
