23
Properties=species:S:1:pos:R:3 gdb_100945=T pbc="F F F"
C       -0.10820000       1.69610000      -0.02960000
C       -0.05310000       0.18430000       0.19960000
C       -1.39800000      -0.50680000      -0.04870000
O       -1.88020000      -0.25550000      -1.37720000
C       -1.34550000      -2.02860000       0.18190000
C       -2.74910000      -2.66020000       0.18520000
O       -3.39360000      -2.61740000      -1.06770000
O       -0.50310000      -2.51140000      -0.85710000
C       -0.38420000      -3.91560000      -0.96280000
H        0.87510000       2.15260000       0.11660000
H       -0.44440000       1.92000000      -1.04520000
H       -0.80640000       2.17760000       0.66470000
H        0.69800000      -0.27620000      -0.45250000
H        0.25850000      -0.03040000       1.23010000
H       -2.15410000      -0.07720000       0.61950000
H       -1.31190000      -0.79030000      -1.94970000
H       -0.88790000      -2.23100000       1.16650000
H       -2.68710000      -3.71530000       0.47340000
H       -3.33220000      -2.15420000       0.97480000
H       -3.26000000      -1.72090000      -1.40910000
H        0.40400000      -4.10940000      -1.69470000
H       -0.09120000      -4.37040000      -0.00470000
H       -1.31540000      -4.37670000      -1.31230000
