16
Properties=species:S:1:pos:R:3 gdb_23214=T pbc="F F F"
O       -0.08600000       1.29610000      -0.02360000
N        0.01440000      -0.08940000      -0.00280000
C       -1.11770000      -0.66990000       0.01710000
C       -1.31640000      -2.16450000       0.04240000
C       -2.46360000      -2.32280000      -1.00970000
C       -3.29240000      -1.52280000       0.05110000
C       -2.44340000      -2.28930000       1.12060000
C       -2.56220000      -0.17890000       0.02300000
O       -3.00890000       0.93530000       0.00980000
H        0.83890000       1.56760000      -0.03660000
H       -0.42430000      -2.78610000       0.04380000
H       -2.32180000      -1.88290000      -1.99990000
H       -2.80700000      -3.35630000      -1.09430000
H       -4.37910000      -1.48580000       0.06080000
H       -2.78490000      -3.31960000       1.24410000
H       -2.28300000      -1.81860000       2.09360000
