18
Properties=species:S:1:pos:R:3 gdb_4485=T pbc="F F F"
C        0.12470000       1.45530000      -0.07270000
C       -0.06210000      -0.01910000      -0.04590000
C       -1.15210000      -0.82760000      -0.07610000
C       -0.67480000      -2.18600000      -0.02190000
C       -1.51950000      -3.42280000      -0.03060000
C        0.68400000      -2.09670000       0.03780000
C        1.78310000      -3.09540000       0.11150000
O        1.06830000      -0.78090000       0.02370000
H        0.72080000       1.77130000      -0.93690000
H       -0.84680000       1.95150000      -0.12880000
H        0.64050000       1.81360000       0.82590000
H       -2.18170000      -0.50630000      -0.13060000
H       -2.13060000      -3.48550000      -0.93880000
H       -0.91080000      -4.32980000       0.01860000
H       -2.21030000      -3.44350000       0.82050000
H        2.46410000      -3.00980000      -0.74350000
H        2.38420000      -2.96760000       1.01960000
H        1.37490000      -4.10830000       0.11730000
