19
Properties=species:S:1:pos:R:3 gdb_95462=T pbc="F F F"
O       -0.27900000       1.12380000       0.76730000
C        0.09580000      -0.15930000       0.25500000
C       -1.04920000      -1.20440000       0.23380000
C       -1.46650000      -1.36020000      -1.25180000
C       -0.34590000      -0.68490000      -2.00200000
C        0.52020000      -0.06780000      -1.19770000
C        1.74000000       0.73930000      -1.56270000
C        1.96560000       0.90590000      -2.99300000
C        2.14630000       1.03680000      -4.17390000
H       -0.94770000       1.48340000       0.17280000
H        0.91330000      -0.46900000       0.91580000
H       -0.68100000      -2.15930000       0.61990000
H       -1.86500000      -0.88580000       0.88780000
H       -1.57840000      -2.41230000      -1.53790000
H       -2.43260000      -0.88710000      -1.47480000
H       -0.27330000      -0.69430000      -3.08400000
H        1.65640000       1.72280000      -1.07960000
H        2.62730000       0.27580000      -1.10530000
H        2.31510000       1.16060000      -5.21480000
