20
Properties=species:S:1:pos:R:3 gdb_116650=T pbc="F F F"
C        0.41350000       0.74670000       0.28360000
O       -0.87740000       0.42170000      -0.21880000
C       -1.26270000      -0.85690000      -0.03580000
N       -2.40480000      -1.21810000      -0.43300000
C       -2.83280000      -2.58750000      -0.22380000
C       -2.00340000      -3.61140000      -1.03150000
C       -2.84160000      -3.02640000       1.25610000
C       -3.96910000      -3.95630000       1.66310000
O       -1.99900000      -2.65950000       2.04150000
H        0.57720000       1.79980000       0.05170000
H        0.46800000       0.60430000       1.36930000
H        1.19600000       0.14820000      -0.19880000
H       -0.52070000      -1.48370000       0.46770000
H       -3.86680000      -2.65320000      -0.58340000
H       -0.97120000      -3.64690000      -0.67140000
H       -2.42560000      -4.61890000      -0.95920000
H       -1.99450000      -3.31650000      -2.08390000
H       -3.76750000      -4.38470000       2.64560000
H       -4.90350000      -3.38340000       1.70470000
H       -4.11890000      -4.75110000       0.92550000
