18
Properties=species:S:1:pos:R:3 gdb_84637=T pbc="F F F"
C       -0.40460000       1.45130000       0.01240000
C        0.03360000      -0.03520000      -0.03730000
C        0.82420000      -0.34250000      -1.28660000
C        2.14610000      -0.50770000      -1.31140000
C        2.97370000      -0.36760000      -0.08640000
N        2.85770000       0.92500000       0.61810000
C        2.27270000      -0.28910000       1.23690000
C        0.77990000      -0.40040000       1.24700000
O        0.19460000      -0.80720000       2.22690000
H        0.47030000       2.10330000       0.05000000
H       -0.99030000       1.70120000      -0.87760000
H       -1.02580000       1.62880000       0.89490000
H       -0.87700000      -0.64550000      -0.02460000
H        0.25240000      -0.40400000      -2.20950000
H        2.66210000      -0.72060000      -2.24270000
H        3.94980000      -0.84520000      -0.09330000
H        3.72810000       1.13860000       1.10050000
H        2.75030000      -0.70650000       2.11820000
