13
Properties=species:S:1:pos:R:3 gdb_127531=T pbc="F F F"
C        0.13260000       1.41650000      -0.04950000
N        0.06840000      -0.02660000      -0.02180000
N        0.15490000      -0.77610000      -1.16420000
C        0.05970000      -1.99680000      -0.74420000
O       -0.08510000      -2.10390000       0.61010000
C       -0.08090000      -0.80030000       1.10340000
O       -0.18730000      -0.49550000       2.25640000
C        0.09120000      -3.16500000      -1.52730000
C        0.11560000      -4.17560000      -2.17810000
H        1.08700000       1.74910000      -0.46610000
H       -0.68520000       1.82440000      -0.64950000
H        0.04030000       1.75920000       0.98190000
H        0.13800000      -5.06560000      -2.75830000
