19
Properties=species:S:1:pos:R:3 gdb_87640=T pbc="F F F"
C       -0.01880000       1.53490000       0.33410000
C       -0.06420000       0.02760000       0.22150000
C        1.08630000      -0.73000000      -0.43820000
C        0.84420000      -0.83980000       1.02900000
N        1.74050000      -0.42120000       2.11380000
C        1.17960000      -1.32130000       3.01420000
N        1.13240000      -1.49850000       4.26560000
C        0.42460000      -2.04760000       1.89810000
O       -0.94460000      -2.24470000       2.11990000
H        1.00480000       1.89770000       0.48260000
H       -0.39980000       2.00940000      -0.57630000
H       -0.62490000       1.89110000       1.17440000
H       -1.05670000      -0.38950000       0.07070000
H        0.86350000      -1.58670000      -1.06660000
H        1.94040000      -0.14420000      -0.76640000
H        2.01200000       0.52930000       2.32940000
H        1.64650000      -0.78310000       4.78220000
H        0.90420000      -2.98110000       1.57780000
H       -1.08860000      -2.13960000       3.06830000
