14
Properties=species:S:1:pos:R:3 gdb_44769=T pbc="F F F"
O       -0.04350000       0.05140000      -0.04230000
C        0.01920000       1.23740000      -0.01020000
O       -1.04940000       2.09380000       0.01450000
C       -0.40380000       3.40320000       0.05130000
C        0.69030000       3.26230000      -1.02810000
C        1.21920000       2.20670000       0.01750000
C        0.69040000       3.20160000       1.12100000
C        2.54850000       1.65600000       0.00190000
N        3.62810000       1.24450000      -0.00980000
H       -1.16020000       4.18160000       0.07340000
H        0.39030000       2.89420000      -2.01000000
H        1.34930000       4.12740000      -1.10590000
H        1.34930000       4.06090000       1.24760000
H        0.39040000       2.77860000       2.08060000
