17
Properties=species:S:1:pos:R:3 gdb_39525=T pbc="F F F"
C       -0.15310000       1.41570000      -0.00730000
N        1.20190000       1.94480000       0.21240000
C        1.98800000       0.97450000      -0.02530000
O        3.23750000       0.87100000       0.45450000
C        3.23100000      -0.21750000       1.43320000
C        1.78860000      -0.54000000       1.89710000
C        0.97500000      -0.93370000       0.65760000
C        0.04900000      -0.09190000      -0.19210000
N        1.45990000      -0.24880000      -0.57660000
H       -0.78020000       1.68620000       0.84960000
H       -0.62790000       1.83990000      -0.90200000
H        3.68680000      -1.10050000       0.97180000
H        3.86000000       0.11970000       2.26020000
H        1.82590000      -1.37500000       2.60240000
H        1.36850000       0.31740000       2.42710000
H        0.85980000      -2.00710000       0.51920000
H       -0.67040000      -0.63880000      -0.79450000
