15
Properties=species:S:1:pos:R:3 gdb_123779=T pbc="F F F"
C       -0.20830000       1.32670000      -0.32140000
C        1.18840000       1.14530000       0.17430000
C        0.26170000      -0.06000000       0.09560000
C       -0.25430000      -0.69890000       1.31590000
C       -0.58730000      -0.02760000       2.49980000
N       -1.04490000      -0.68320000       3.54950000
N       -1.18550000      -2.00890000       3.46040000
N       -0.87770000      -2.64930000       2.35890000
N       -0.41440000      -2.02400000       1.28210000
H       -0.92450000       1.82710000       0.32140000
H       -0.37230000       1.48450000      -1.38080000
H        2.00530000       1.17570000      -0.53710000
H        1.44020000       1.51990000       1.16060000
H        0.44990000      -0.77530000      -0.69640000
H       -0.48800000       1.04880000       2.61390000
