17
Properties=species:S:1:pos:R:3 gdb_113013=T pbc="F F F"
O       -0.10810000       1.12820000      -0.76770000
C        0.00600000      -0.19780000      -0.29380000
C       -1.33170000      -0.64860000       0.28300000
O       -2.38740000      -0.46750000      -0.70500000
C       -2.54370000      -1.87730000      -0.88280000
C       -2.02740000      -2.39090000      -2.21710000
O       -1.47270000      -1.70400000      -3.03250000
C       -1.61900000      -2.17570000       0.32600000
O       -0.58400000      -3.07880000       0.02940000
H       -0.81380000       1.10490000      -1.42670000
H        0.32810000      -0.88670000      -1.08430000
H        0.77170000      -0.19820000       0.49040000
H       -1.56970000      -0.08600000       1.19250000
H       -3.58810000      -2.20020000      -0.76800000
H       -2.21880000      -3.47320000      -2.38710000
H       -2.17690000      -2.47950000       1.21860000
H       -0.09350000      -3.27330000       0.83390000
