18
Properties=species:S:1:pos:R:3 gdb_27258=T pbc="F F F"
N        0.16150000       1.41250000      -0.05140000
C       -0.01940000       0.01210000      -0.02410000
C       -1.12000000      -0.80390000       0.07750000
C       -2.61930000      -0.79970000       0.17110000
C       -2.93670000      -2.29490000      -0.13840000
N       -1.72610000      -3.04870000       0.27530000
C       -0.65510000      -2.14420000       0.13030000
C        0.71160000      -2.14980000       0.04730000
N        1.08560000      -0.80670000      -0.05970000
H        0.33160000       1.76050000      -0.99130000
H       -0.66220000       1.88350000       0.30200000
H       -2.96830000      -0.53620000       1.17890000
H       -3.13050000      -0.13390000      -0.53190000
H       -3.81770000      -2.65780000       0.39910000
H       -3.12670000      -2.40600000      -1.21730000
H       -1.61910000      -3.92500000      -0.21920000
H        1.44480000      -2.93710000       0.00930000
H        2.02480000      -0.45850000       0.01830000
