21
Properties=species:S:1:pos:R:3 gdb_83581=T pbc="F F F"
C       -0.05830000       1.53330000       0.00980000
C        0.04080000       0.00700000       0.00720000
C        0.93450000      -0.58440000      -1.10160000
C        2.37020000      -0.25480000      -0.62790000
C        2.27240000      -0.26390000       0.92610000
C        0.78890000      -0.59780000       1.21230000
O        0.54280000      -2.01160000       1.20840000
C        1.03750000      -2.64750000       0.05440000
O        0.69090000      -1.99790000      -1.14500000
H        0.91850000       2.02220000       0.07400000
H       -0.54510000       1.89020000      -0.90400000
H       -0.65580000       1.87990000       0.85960000
H       -0.96010000      -0.42800000      -0.05840000
H        0.71510000      -0.22040000      -2.10780000
H        3.08610000      -0.98120000      -1.02030000
H        2.66890000       0.72630000      -1.00640000
H        2.93400000      -0.99530000       1.39660000
H        2.52060000       0.71250000       1.35050000
H        0.44490000      -0.24530000       2.18720000
H        2.13350000      -2.75600000       0.12280000
H        0.58150000      -3.63990000       0.02000000
