16
Properties=species:S:1:pos:R:3 gdb_72840=T pbc="F F F"
O        0.02120000       1.42430000      -0.03290000
C        0.03210000       0.02620000       0.00130000
C        0.29960000      -0.76430000      -1.30740000
N       -0.81560000      -1.66490000      -0.92270000
C       -1.34810000      -0.64540000       0.02500000
C       -1.54690000      -1.18690000       1.43270000
O       -2.53660000      -1.62410000       1.94030000
O       -0.35780000      -1.10230000       2.09640000
C        0.68970000      -0.57580000       1.26990000
H        0.92890000       1.74610000       0.00160000
H        0.09440000      -0.12800000      -2.17750000
H        1.26660000      -1.26350000      -1.43390000
H       -1.45060000      -1.93010000      -1.66550000
H       -2.19160000      -0.04390000      -0.32120000
H        1.38410000      -1.38760000       1.03300000
H        1.21170000       0.19440000       1.84550000
