19
Properties=species:S:1:pos:R:3 gdb_84402=T pbc="F F F"
C        0.55210000       1.51440000      -0.00550000
C       -0.02800000       0.08710000       0.00920000
C        0.25800000      -0.63690000      -1.28120000
C        0.70850000      -1.88560000      -1.37470000
C        1.01750000      -2.78200000      -0.20570000
O        2.29560000      -3.39890000      -0.35580000
C        0.94300000      -2.06370000       1.12530000
O        1.87190000      -0.97610000       1.25800000
C        0.47100000      -0.67560000       1.21950000
H        1.64330000       1.47710000      -0.06690000
H        0.17650000       2.07950000      -0.86400000
H        0.27830000       2.05910000       0.90370000
H       -1.12070000       0.17220000       0.12010000
H        0.07440000      -0.06650000      -2.18980000
H        0.89860000      -2.33150000      -2.34760000
H        0.30630000      -3.61900000      -0.18760000
H        2.94240000      -2.68740000      -0.26910000
H        0.89070000      -2.70820000       2.00230000
H        0.07580000      -0.33240000       2.17680000
