17
Properties=species:S:1:pos:R:3 gdb_49717=T pbc="F F F"
N        0.03720000       1.28040000       0.09960000
C       -0.03500000       0.01470000       0.04430000
N       -1.23380000      -0.66860000      -0.06610000
C       -1.48490000      -2.11680000      -0.04930000
C       -1.55610000      -2.74800000       1.36870000
C       -3.06900000      -2.37970000       1.45450000
C       -3.01180000      -1.79430000       0.00640000
C       -2.60200000      -0.31360000      -0.02630000
O       -3.16320000       0.73990000       0.00150000
H        1.01120000       1.57050000       0.16980000
H        0.81460000      -0.68130000       0.06660000
H       -1.00410000      -2.66790000      -0.85830000
H       -1.38050000      -3.82620000       1.35630000
H       -0.89520000      -2.29510000       2.11090000
H       -3.72220000      -3.24990000       1.53610000
H       -3.35340000      -1.66210000       2.22620000
H       -3.73970000      -2.12970000      -0.72900000
