19
Properties=species:S:1:pos:R:3 gdb_63076=T pbc="F F F"
C       -0.08550000       1.59990000      -0.02640000
C        0.02370000       0.09360000       0.04410000
O       -1.13740000      -0.57920000      -0.39400000
C        1.29830000      -0.65910000      -0.27140000
O        2.52570000       0.02690000      -0.14780000
C        2.93100000       0.07380000       1.20580000
C        2.30250000       1.09420000       2.11720000
C        1.76530000      -0.32530000       2.07400000
C        0.68600000      -0.76470000       1.11280000
H        0.89470000       2.07300000      -0.09420000
H       -0.63420000       1.86410000      -0.93840000
H       -0.63600000       2.01850000       0.82150000
H       -1.25460000      -0.37870000      -1.33030000
H        1.29770000      -1.45420000      -1.01220000
H        3.95520000      -0.25100000       1.35870000
H        2.87420000       1.35340000       3.00330000
H        1.73030000       1.91270000       1.70780000
H        1.89880000      -0.94830000       2.95020000
H        0.11070000      -1.63970000       1.38850000
