20
Properties=species:S:1:pos:R:3 gdb_96280=T pbc="F F F"
C       -0.36090000       1.35950000       0.11500000
C       -0.10380000      -0.12270000      -0.13060000
C        0.84580000      -0.37430000      -1.30190000
C        0.68780000      -1.78890000      -1.89800000
N        0.46620000      -2.84760000      -0.92120000
C        1.32120000      -2.80890000       0.24450000
C        1.10200000      -1.75720000       1.35180000
O        1.54310000      -1.95100000       2.45360000
O        0.41000000      -0.61490000       1.13090000
H        0.58270000       1.89150000       0.27020000
H       -0.87430000       1.80160000      -0.74410000
H       -0.98160000       1.49660000       1.00350000
H       -1.06360000      -0.62460000      -0.31650000
H        0.66360000       0.37130000      -2.08410000
H        1.87080000      -0.20350000      -0.95150000
H       -0.16070000      -1.80370000      -2.59040000
H        1.57810000      -2.03330000      -2.49200000
H       -0.50850000      -2.90700000      -0.65570000
H        1.27490000      -3.76540000       0.77330000
H        2.36320000      -2.70280000      -0.08380000
