22
Properties=species:S:1:pos:R:3 gdb_104657=T pbc="F F F"
C        1.66900000       0.79850000      -1.29310000
C        0.87800000      -0.24040000      -0.52660000
N        1.48200000      -1.20630000       0.40160000
C        2.91470000      -1.16470000       0.68330000
C        0.58550000      -0.16770000       0.94090000
C        1.11810000       0.93490000       1.84150000
O        1.50370000       0.43810000       3.11360000
C       -0.70740000      -0.78710000       1.44920000
O       -0.47110000      -1.55050000       2.63570000
H        2.39580000       1.33830000      -0.68510000
H        2.20890000       0.32880000      -2.12270000
H        0.98410000       1.53660000      -1.72330000
H        0.10130000      -0.69650000      -1.14290000
H        3.39740000      -0.18940000       0.54380000
H        3.07780000      -1.46360000       1.72150000
H        3.41630000      -1.88420000       0.02820000
H        1.99990000       1.42120000       1.41850000
H        0.34030000       1.71220000       1.93520000
H        0.82470000      -0.20010000       3.37810000
H       -1.43510000      -0.01690000       1.72580000
H       -1.15370000      -1.41930000       0.67050000
H        0.17040000      -2.22560000       2.37770000
