21
Properties=species:S:1:pos:R:3 gdb_109093=T pbc="F F F"
C       -0.07360000       1.60600000      -0.06740000
C        0.02590000       0.07600000       0.06850000
C        0.69240000      -0.59000000      -1.12170000
C        2.01730000      -0.90640000      -1.05910000
C        2.85140000      -1.37790000      -2.14010000
C        2.44790000      -2.13900000      -3.17350000
C        1.06170000      -2.73030000      -3.22600000
C        0.07040000      -1.59910000      -3.32120000
C       -0.10110000      -0.70350000      -2.33220000
H        0.92220000       2.05210000      -0.15260000
H       -0.64330000       1.89520000      -0.95620000
H       -0.57150000       2.04310000       0.80400000
H        0.58820000      -0.16660000       0.97650000
H       -0.98110000      -0.33760000       0.20440000
H        2.53500000      -0.66370000      -0.13180000
H        3.89450000      -1.06900000      -2.10150000
H        3.13400000      -2.34990000      -3.98910000
H        0.95730000      -3.41340000      -4.07220000
H        0.87420000      -3.30690000      -2.30880000
H       -0.53280000      -1.51790000      -4.22170000
H       -0.90960000       0.01840000      -2.43630000
