19
Properties=species:S:1:pos:R:3 gdb_73638=T pbc="F F F"
C        0.04470000       1.58430000      -0.10630000
C       -0.03980000       0.07400000       0.04650000
C       -1.46020000      -0.52660000      -0.03190000
C       -1.37960000      -1.86230000       0.73550000
C       -0.38000000      -1.57620000       1.87600000
C        0.64300000      -0.64290000       1.24710000
O        1.53700000      -1.35260000       0.31300000
C        0.98240000      -0.72590000      -0.77320000
O        1.28700000      -0.84760000      -1.91720000
H        1.07090000       1.94640000       0.00990000
H       -0.30270000       1.88540000      -1.09950000
H       -0.58230000       2.08600000       0.63820000
H       -2.15480000       0.15900000       0.46910000
H       -1.80070000      -0.64110000      -1.06460000
H       -2.35290000      -2.19920000       1.09940000
H       -0.98630000      -2.65000000       0.08490000
H       -0.87670000      -1.04270000       2.69590000
H        0.08150000      -2.47400000       2.29550000
H        1.23790000      -0.04710000       1.94080000
