15
Properties=species:S:1:pos:R:3 gdb_15852=T pbc="F F F"
C       -0.04000000       1.49610000       0.09210000
N       -0.01470000       0.04890000       0.07970000
C       -1.26480000      -0.67980000       0.37840000
C       -0.43890000      -1.64200000       1.23740000
O       -0.60670000      -2.70560000       1.74070000
C        0.74850000      -0.63270000       1.15880000
C        2.08210000      -1.09620000       0.84300000
C        3.18480000      -1.50070000       0.58900000
H        0.97180000       1.88100000      -0.06540000
H       -0.66960000       1.86160000      -0.72490000
H       -0.42740000       1.91530000       1.04050000
H       -1.98890000      -0.12230000       0.99810000
H       -1.78640000      -1.09700000      -0.48890000
H        0.75970000      -0.05210000       2.10120000
H        4.15770000      -1.85950000       0.35950000
