22
Properties=species:S:1:pos:R:3 gdb_94235=T pbc="F F F"
C       -0.69990000       1.18400000      -0.07870000
C        0.16610000      -0.06680000      -0.09120000
C        1.57240000      -0.02830000      -0.75140000
C        2.08340000      -0.98110000       0.36040000
C        0.84190000      -0.59200000       1.21910000
C        1.16410000       0.48700000       2.25620000
N        0.11400000      -1.69820000       1.83790000
C        0.65960000      -2.55850000       2.73300000
O        1.80980000      -2.52640000       3.12310000
H       -0.16370000       2.04290000       0.33610000
H       -1.00600000       1.44590000      -1.09740000
H       -1.61250000       1.04320000       0.51200000
H       -0.39940000      -0.89960000      -0.52860000
H        1.64520000      -0.37010000      -1.78590000
H        2.02300000       0.96680000      -0.68570000
H        2.04090000      -2.02910000       0.05730000
H        3.06060000      -0.78140000       0.80200000
H        1.72230000       1.31360000       1.80610000
H        0.25060000       0.89370000       2.70210000
H        1.77630000       0.05000000       3.04810000
H       -0.85830000      -1.81920000       1.60030000
H       -0.07190000      -3.32020000       3.07380000
