17
Properties=species:S:1:pos:R:3 gdb_69339=T pbc="F F F"
C        0.07380000       1.56950000       0.01590000
C       -0.08280000       0.08960000       0.12770000
C       -1.36220000      -0.75530000      -0.00330000
C       -0.70320000      -1.81680000       0.97250000
O       -1.27490000      -1.79500000       2.26920000
C       -0.54490000      -3.17230000       0.46630000
C       -0.45830000      -4.30410000       0.06960000
C        0.55220000      -0.91510000       0.99700000
O        0.98440000      -0.75250000      -0.35000000
H        1.08750000       1.86750000       0.29620000
H       -0.10820000       1.90260000      -1.01210000
H       -0.63870000       2.08380000       0.66850000
H       -2.23560000      -0.31340000       0.48120000
H       -1.60170000      -1.08690000      -1.01550000
H       -2.01750000      -2.40870000       2.27320000
H       -0.36060000      -5.29980000      -0.28700000
H        1.28160000      -0.84440000       1.79610000
