15
Properties=species:S:1:pos:R:3 gdb_34559=T pbc="F F F"
C        0.09860000      -1.15810000       0.06780000
C       -0.01600000       0.04060000       0.00680000
C       -0.08360000       1.44220000      -0.08070000
C       -1.13560000       2.27920000      -0.06130000
C       -0.51360000       3.66730000       0.01500000
O       -0.01930000       3.82220000       1.36710000
C        1.14250000       2.98320000       1.40110000
C        1.13560000       2.37790000      -0.03730000
O        0.65860000       3.52430000      -0.75450000
H        0.18050000      -2.21530000       0.12350000
H       -2.18440000       2.04030000       0.03680000
H       -1.09490000       4.54230000      -0.26500000
H        2.03320000       3.59810000       1.56440000
H        1.05620000       2.22900000       2.18890000
H        2.07970000       2.01060000      -0.43070000
