19
Properties=species:S:1:pos:R:3 gdb_113360=T pbc="F F F"
C       -0.32220000       1.40030000       0.39190000
C        0.40030000       0.12520000      -0.06410000
C        0.91490000      -0.66260000       1.11660000
O       -0.01370000      -1.43610000       1.86880000
C        1.04020000      -2.14240000       1.18480000
C        0.57710000      -3.10160000       0.11430000
O       -0.01060000      -4.24790000       0.70970000
C        2.10680000      -2.68720000       2.10790000
O        2.40240000      -2.17820000       3.15700000
H        0.34420000       2.04690000       0.97220000
H       -0.68200000       1.97290000      -0.46750000
H       -1.18150000       1.15240000       1.02190000
H       -0.27670000      -0.48830000      -0.66470000
H        1.25350000       0.38620000      -0.70300000
H        1.61950000      -0.12340000       1.75410000
H       -0.11100000      -2.60810000      -0.58180000
H        1.43470000      -3.46460000      -0.46330000
H       -0.74640000      -3.93710000       1.25010000
H        2.62640000      -3.59380000       1.73030000
