18
Properties=species:S:1:pos:R:3 gdb_13522=T pbc="F F F"
C       -0.24820000       0.76950000      -0.77590000
N       -0.08750000      -0.35020000       0.13020000
C       -1.19970000      -0.68280000       1.04730000
C       -0.16290000      -0.99980000       2.14960000
C        0.84540000      -0.20580000       1.26980000
C        2.24170000      -0.79580000       1.10440000
N        2.35900000      -1.61120000       0.02470000
O        3.13400000      -0.56250000       1.89820000
H        0.69420000       0.95750000      -1.30060000
H       -1.01180000       0.53470000      -1.52490000
H       -0.54720000       1.69990000      -0.25980000
H       -1.81570000       0.19450000       1.30060000
H       -1.85740000      -1.48650000       0.70090000
H       -0.35320000      -0.60920000       3.14800000
H        0.08600000      -2.06070000       2.21160000
H        0.95700000       0.82990000       1.62140000
H        1.54720000      -1.76880000      -0.55140000
H        3.22390000      -2.09700000      -0.14010000
