17
Properties=species:S:1:pos:R:3 gdb_94091=T pbc="F F F"
O       -0.04420000       1.47090000       0.18730000
C        0.09110000       0.06660000       0.07290000
C        0.62150000      -0.56280000       1.36920000
O        0.54390000      -1.98310000       1.29550000
C       -0.77110000      -2.40900000       1.04670000
O       -1.26330000      -1.92410000      -0.17410000
C       -1.30320000      -0.50100000      -0.20050000
C       -0.71620000      -3.93170000       0.91870000
O       -1.30810000      -4.68170000       1.64370000
H        0.83260000       1.86660000       0.16920000
H        0.75240000      -0.21580000      -0.75870000
H        1.67270000      -0.31430000       1.54260000
H        0.02830000      -0.18320000       2.21610000
H       -1.43660000      -2.11860000       1.87880000
H       -2.00260000      -0.11650000       0.55830000
H       -1.66590000      -0.20810000      -1.18760000
H       -0.07080000      -4.27660000       0.08410000
