20
Properties=species:S:1:pos:R:3 gdb_86779=T pbc="F F F"
C       -0.63770000       1.34840000      -0.17900000
C       -0.04630000      -0.05040000      -0.09460000
C        1.30510000      -0.35760000      -0.79630000
O        2.09930000       0.81920000      -0.82100000
C        1.65350000      -1.30910000       0.38130000
C        0.55690000      -0.61160000       1.23760000
C        1.10960000       0.46340000       2.19050000
C        1.84640000      -0.12610000       3.30700000
N        2.43020000      -0.61170000       4.17850000
H        0.09220000       2.11540000       0.08830000
H       -0.97490000       1.56110000      -1.19870000
H       -1.50540000       1.44670000       0.48270000
H       -0.78100000      -0.77900000      -0.45410000
H        1.24710000      -0.80540000      -1.79710000
H        2.99360000       0.56940000      -1.07570000
H        1.40460000      -2.35010000       0.16010000
H        2.68030000      -1.26450000       0.75520000
H       -0.09950000      -1.28110000       1.79880000
H        1.77960000       1.13480000       1.64430000
H        0.29550000       1.07500000       2.59600000
