21
Properties=species:S:1:pos:R:3 gdb_114131=T pbc="F F F"
C       -0.19840000       1.27220000       0.05260000
O        0.29240000      -0.03320000      -0.15210000
C        0.81370000      -0.61840000       1.01390000
C       -0.18760000      -1.15770000       2.09940000
C        0.41580000      -2.55610000       1.90450000
C        0.70080000      -3.53310000       3.00410000
O       -0.48320000      -4.09500000       3.55810000
C        0.23080000      -2.96990000       0.46740000
C        1.35250000      -2.02620000       0.80810000
H        0.59010000       1.95100000       0.41500000
H       -0.56310000       1.63830000      -0.91010000
H       -1.02750000       1.29410000       0.77600000
H        1.56190000       0.04750000       1.46910000
H       -0.00700000      -0.73800000       3.09200000
H       -1.25030000      -1.05960000       1.85790000
H        1.38340000      -4.31630000       2.63430000
H        1.20190000      -3.03480000       3.84210000
H       -0.98450000      -4.47490000       2.82860000
H        0.55130000      -3.97890000       0.22410000
H       -0.61820000      -2.61460000      -0.10920000
H        2.38800000      -2.27690000       0.61160000
