23
Properties=species:S:1:pos:R:3 gdb_119831=T pbc="F F F"
C        0.10610000       1.55090000       0.05010000
C        0.17100000       0.02190000       0.04400000
C        0.57430000      -0.55200000      -1.32860000
C        0.64490000      -2.04960000      -1.35770000
C       -0.13850000      -2.88210000      -2.05260000
C        0.19670000      -4.33310000      -1.80080000
C        1.60530000      -4.24850000      -1.16020000
O        2.62880000      -4.40620000      -2.13510000
C        1.64190000      -2.83730000      -0.52440000
H        1.07740000       1.99000000      -0.20360000
H       -0.62310000       1.91970000      -0.68000000
H       -0.18520000       1.93300000       1.03340000
H        0.88360000      -0.31770000       0.80560000
H       -0.80330000      -0.39360000       0.32930000
H       -0.13660000      -0.20350000      -2.08790000
H        1.55440000      -0.13350000      -1.60290000
H       -0.94770000      -2.56630000      -2.70320000
H       -0.53000000      -4.79530000      -1.11720000
H        0.22290000      -4.95520000      -2.70220000
H        1.78660000      -5.04260000      -0.43200000
H        2.48410000      -3.73070000      -2.80800000
H        2.65950000      -2.43030000      -0.54770000
H        1.33510000      -2.86580000       0.53050000
