23
Properties=species:S:1:pos:R:3 gdb_109710=T pbc="F F F"
C        0.44840000       1.10370000      -0.23740000
O       -0.26650000       0.04150000       0.36010000
C        0.47480000      -0.63210000       1.32940000
C       -0.00980000      -1.99440000       1.74170000
C       -1.24680000      -2.60040000       1.11410000
C        1.26950000      -1.85740000       0.94870000
C        1.54050000      -2.31710000      -0.49030000
C        3.06200000      -2.31330000      -0.15190000
C        2.71400000      -2.16900000       1.36020000
H        1.36610000       0.75610000      -0.73290000
H       -0.20980000       1.55830000      -0.98190000
H        0.72670000       1.86800000       0.50460000
H        0.89130000       0.02100000       2.10100000
H        0.11950000      -2.22100000       2.79870000
H       -1.35450000      -2.28550000       0.07410000
H       -1.20410000      -3.69480000       1.14060000
H       -2.15040000      -2.28790000       1.64820000
H        1.15580000      -3.32170000      -0.69450000
H        1.20510000      -1.65510000      -1.29230000
H        3.63000000      -3.20020000      -0.44100000
H        3.57440000      -1.43240000      -0.54680000
H        3.24740000      -1.39390000       1.91910000
H        2.80660000      -3.11320000       1.90760000
