19
Properties=species:S:1:pos:R:3 gdb_38978=T pbc="F F F"
C        0.04600000       1.46420000       0.09590000
C        1.35910000       0.73910000      -0.05770000
C        1.74170000       0.07440000       1.27180000
C        0.41330000      -0.73300000       1.22540000
O        0.69430000      -2.10650000       0.98950000
C       -0.25440000      -2.70020000       0.13820000
O       -0.24950000      -2.15040000      -1.15160000
C       -0.69890000      -0.79610000      -1.13560000
C        0.03140000      -0.02180000      -0.08120000
H       -0.23100000       1.91490000       1.04750000
H       -0.27540000       2.03480000      -0.77120000
H        2.03400000       0.95560000      -0.87710000
H        2.58710000      -0.61070000       1.19780000
H        1.88480000       0.74600000       2.12400000
H       -0.28210000      -0.63160000       2.07240000
H        0.02890000      -3.74980000       0.03890000
H       -1.26710000      -2.61950000       0.57890000
H       -0.53130000      -0.39230000      -2.13880000
H       -1.78530000      -0.77610000      -0.93790000
