19
Properties=species:S:1:pos:R:3 gdb_61550=T pbc="F F F"
C       -0.20660000       1.42690000      -0.03420000
C        0.10510000      -0.05110000      -0.01720000
O        0.46770000      -0.62770000       0.98740000
C       -0.04120000      -0.85280000      -1.31230000
O        0.34710000      -2.18220000      -1.09290000
C       -1.48220000      -0.79980000      -1.86350000
C       -1.58570000      -1.55600000      -3.16580000
C       -2.49350000      -1.13520000      -4.23830000
O       -1.09180000      -0.87040000      -4.32280000
H        0.13580000       1.89930000      -0.95930000
H       -1.29190000       1.57120000       0.02260000
H        0.25090000       1.90830000       0.83110000
H        0.61960000      -0.38500000      -2.06220000
H        0.57330000      -2.22450000      -0.14850000
H       -2.15670000      -1.24710000      -1.12290000
H       -1.78970000       0.23800000      -2.03030000
H       -1.29480000      -2.60380000      -3.11230000
H       -2.87550000      -1.86930000      -4.94620000
H       -3.12670000      -0.25990000      -4.09420000
