21
Properties=species:S:1:pos:R:3 gdb_82314=T pbc="F F F"
C       -0.79520000       1.13350000      -0.03490000
C        0.02470000      -0.15420000      -0.11170000
C        1.08810000      -0.16910000      -1.20180000
C        2.37650000       0.52080000      -0.93010000
N        2.27460000      -0.93820000      -0.76950000
C        2.02220000      -1.35020000       0.62290000
C        0.83200000      -0.53600000       1.13880000
C        0.90720000       0.31660000       2.35360000
N        0.19440000      -0.97590000       2.38130000
H       -0.15270000       2.00820000       0.10230000
H       -1.37050000       1.27970000      -0.95450000
H       -1.51330000       1.10370000       0.79340000
H       -0.66360000      -0.98760000      -0.31990000
H        0.76380000      -0.31960000      -2.22820000
H        3.00170000       0.84000000      -1.75880000
H        2.45630000       1.13960000      -0.03930000
H        1.76580000      -2.41570000       0.61930000
H        2.92230000      -1.22550000       1.23260000
H        1.82490000       0.34140000       2.93650000
H        0.32510000       1.23270000       2.39260000
H       -0.81020000      -0.81330000       2.33630000
