21
Properties=species:S:1:pos:R:3 gdb_103947=T pbc="F F F"
C       -0.27890000       1.46200000       0.00540000
C        0.00110000      -0.04450000       0.02820000
C        0.80640000      -0.50110000       1.24220000
O        2.09320000       0.10370000       1.28540000
C        0.09730000      -0.45920000       2.64250000
C        0.65170000      -1.86280000       2.89300000
C        1.32040000      -2.39330000       4.07920000
O        0.01540000      -2.84730000       3.68490000
C        1.01890000      -2.03270000       1.41860000
H        0.64920000       2.04130000      -0.05450000
H       -0.88300000       1.73560000      -0.86430000
H       -0.82330000       1.78320000       0.90060000
H       -0.94710000      -0.59480000       0.01050000
H        0.55280000      -0.33250000      -0.87520000
H        1.97370000       1.04760000       1.43370000
H        0.41010000       0.33800000       3.32180000
H       -0.99440000      -0.46550000       2.56650000
H        2.12150000      -3.12320000       3.96880000
H        1.35150000      -1.80310000       4.99460000
H        0.27390000      -2.62500000       0.87970000
H        2.02190000      -2.39030000       1.17910000
