14
Properties=species:S:1:pos:R:3 gdb_47261=T pbc="F F F"
O       -0.05460000       0.12110000       0.62720000
C       -0.00030000       1.24360000       0.20110000
C       -1.15080000       2.23550000       0.36550000
O       -1.52290000       2.88490000      -0.85050000
C       -0.68250000       3.77120000      -1.44720000
N        0.54840000       4.00940000      -1.32220000
C        1.48930000       3.28730000      -0.47780000
C        1.29760000       1.77120000      -0.47490000
O        2.09520000       0.99870000      -0.93330000
H       -2.03250000       1.68610000       0.69480000
H       -0.89210000       2.98210000       1.12840000
H       -1.25940000       4.34320000      -2.17310000
H        2.49910000       3.48410000      -0.84620000
H        1.44340000       3.65750000       0.55640000
