17
Properties=species:S:1:pos:R:3 gdb_14231=T pbc="F F F"
C       -0.08940000       1.47350000       0.00630000
C        0.04020000      -0.03780000      -0.02400000
C        0.84200000      -0.61660000      -1.17740000
C        2.07980000      -0.57280000      -0.31540000
N        1.14750000      -0.51930000       0.91560000
C        1.00200000      -2.02780000       0.80740000
C        1.46680000      -1.91070000      -0.63360000
O        1.86180000      -2.88530000      -1.52320000
H        0.87290000       1.95400000      -0.19660000
H       -0.80790000       1.81600000      -0.74610000
H       -0.43580000       1.80310000       0.99050000
H       -0.92780000      -0.50490000       0.19880000
H        0.76340000      -0.46090000      -2.24690000
H        3.06090000      -0.12820000      -0.39900000
H        1.74180000      -2.51110000       1.45390000
H        0.00170000      -2.41240000       1.03730000
H        2.63730000      -3.32950000      -1.16220000
