16
Properties=species:S:1:pos:R:3 gdb_84549=T pbc="F F F"
O        0.05680000       1.44670000      -0.07010000
C        0.05770000       0.02330000      -0.05020000
C        0.72460000      -0.54560000       1.18030000
C       -0.12020000      -1.22480000       1.96210000
C       -1.49210000      -1.33710000       1.36730000
C       -1.36740000      -0.57940000       0.00390000
N       -1.55220000      -1.87540000      -0.65420000
C       -1.69770000      -2.61930000       0.49030000
O       -1.89550000      -3.78370000       0.69700000
H       -0.15200000       1.74670000       0.82160000
H        0.56260000      -0.27330000      -0.97740000
H        1.77530000      -0.37560000       1.38770000
H        0.14050000      -1.69810000       2.90190000
H       -2.32390000      -1.11100000       2.03720000
H       -2.12800000       0.16510000      -0.24470000
H       -1.49940000      -2.15000000      -1.62440000
