21
Properties=species:S:1:pos:R:3 gdb_116552=T pbc="F F F"
C       -0.45900000       1.59290000      -0.24120000
C        0.37220000       0.35730000       0.09900000
N        1.06780000      -0.12360000      -1.08810000
C        1.92770000      -1.04740000      -1.02540000
C        2.83480000      -1.57810000      -2.13440000
O        3.58890000      -0.59490000      -2.79420000
C        3.57430000      -2.34890000      -1.00340000
N        2.51990000      -1.88290000      -0.09130000
C        2.49170000      -1.98130000       1.34660000
H        0.18420000       2.39580000      -0.61410000
H       -1.18700000       1.35820000      -1.02310000
H       -0.99730000       1.95990000       0.63870000
H        1.07840000       0.60620000       0.90680000
H       -0.29300000      -0.42530000       0.49650000
H        2.32420000      -2.24160000      -2.84450000
H        3.02910000       0.19160000      -2.82070000
H        3.64000000      -3.43800000      -1.09930000
H        4.56410000      -1.92690000      -0.79300000
H        1.54740000      -1.58940000       1.72640000
H        2.57370000      -3.03100000       1.65290000
H        3.31530000      -1.42540000       1.81860000
