14
Properties=species:S:1:pos:R:3 gdb_15509=T pbc="F F F"
N        0.07500000       1.27730000      -0.15690000
C       -0.01990000       0.01710000      -0.08050000
N       -1.22440000      -0.67430000       0.00760000
C       -1.26440000      -2.12310000       0.14300000
C       -2.76070000      -2.39170000      -0.07270000
O       -3.40050000      -1.15060000       0.23010000
C       -2.50380000      -0.11730000       0.16050000
O       -2.81840000       1.02810000       0.23710000
H        1.05600000       1.54400000      -0.22100000
H        0.82270000      -0.68640000      -0.08590000
H       -0.64200000      -2.61930000      -0.60640000
H       -0.93050000      -2.44080000       1.13920000
H       -2.97900000      -2.66190000      -1.11210000
H       -3.15950000      -3.16230000       0.58870000
