14
Properties=species:S:1:pos:R:3 gdb_3568=T pbc="F F F"
C        0.09460000       1.47500000       0.03090000
C        1.32110000       0.66730000      -0.04250000
C        1.65860000       0.04000000       1.32100000
O        1.31610000       0.83130000       2.48460000
C        0.02650000       0.16750000       2.59890000
C        0.27690000      -0.61310000       1.30100000
N       -0.06210000       0.00780000      -0.04640000
H       -0.13190000       2.01820000       0.94180000
H       -0.23560000       1.96100000      -0.88180000
H        1.96410000       0.63410000      -0.91660000
H        2.61340000      -0.47980000       1.41690000
H       -0.01190000      -0.46910000       3.49180000
H       -0.81370000       0.87060000       2.62230000
H        0.09120000      -1.68510000       1.28220000
