14
Properties=species:S:1:pos:R:3 gdb_23737=T pbc="F F F"
C       -0.02820000       1.52930000       0.02870000
C       -0.00610000       0.02690000      -0.01510000
C       -0.03550000      -0.71420000      -1.19580000
C       -0.01170000      -2.10570000      -1.14430000
N        0.03880000      -2.80340000      -0.00750000
C        0.06740000      -2.10850000       1.13140000
C        0.04650000      -0.72230000       1.15750000
F        0.07740000      -0.08530000       2.33530000
H        0.86320000       1.92110000       0.52960000
H       -0.07180000       1.94960000      -0.97830000
H       -0.89210000       1.89350000       0.59430000
H       -0.07680000      -0.20480000      -2.15340000
H       -0.03460000      -2.68590000      -2.06320000
H        0.10860000      -2.66110000       2.06650000
