16
Properties=species:S:1:pos:R:3 gdb_51682=T pbc="F F F"
O        0.29310000       0.90640000      -1.54320000
C        0.00360000       1.21580000      -0.40530000
N        0.90120000       1.35430000       0.60420000
C        2.28330000       0.96350000       0.45630000
C        3.14590000       1.75290000      -0.54960000
C        4.44680000       1.94150000       0.19070000
C        4.38000000       1.59370000       1.48400000
C        3.01380000       1.14060000       1.80170000
O        2.49780000       0.97560000       2.88450000
H       -1.03110000       1.43950000      -0.07980000
H        0.57540000       1.43980000       1.55840000
H        2.34770000      -0.10320000       0.19360000
H        3.26820000       1.23420000      -1.50350000
H        2.68840000       2.72260000      -0.77890000
H        5.32900000       2.34190000      -0.29790000
H        5.16010000       1.67930000       2.22870000
