19
Properties=species:S:1:pos:R:3 gdb_80170=T pbc="F F F"
C        0.04580000       1.64240000       0.04520000
C        0.06330000       0.11370000      -0.00520000
C        0.78390000      -0.54090000      -1.17270000
C        2.28430000      -0.52480000      -1.18010000
O        2.92340000       0.34540000      -0.28860000
C        1.57230000      -1.75100000      -0.65850000
C        1.39540000      -1.83130000       0.84530000
C        0.69000000      -0.52560000       1.24620000
O        0.61870000      -0.08450000       2.36280000
H        1.06270000       2.03650000      -0.00630000
H       -0.53240000       2.05660000      -0.78620000
H       -0.40560000       1.97460000       0.98400000
H       -0.97660000      -0.25110000      -0.01530000
H        0.27760000      -0.58030000      -2.13060000
H        2.76630000      -0.61230000      -2.15340000
H        3.72420000      -0.08060000       0.03550000
H        1.62680000      -2.66860000      -1.23300000
H        0.74710000      -2.67320000       1.11860000
H        2.32100000      -1.94390000       1.41780000
