21
Properties=species:S:1:pos:R:3 gdb_88433=T pbc="F F F"
C       -0.33960000       1.54240000       0.03660000
C       -0.01700000       0.06240000       0.06500000
C        1.36360000      -0.44880000      -0.27770000
C        0.83630000      -0.60120000       1.12720000
C        1.47090000       0.12150000       2.28100000
O        2.22050000       1.27230000       1.97700000
C        0.78760000       0.10340000       3.64010000
C        2.06060000      -0.68470000       3.40160000
O        2.00840000      -2.07700000       3.30780000
H        0.55010000       2.15620000       0.20050000
H       -0.74500000       1.82780000      -0.94050000
H       -1.08750000       1.81190000       0.79190000
H       -0.84010000      -0.55820000      -0.28230000
H        1.46860000      -1.33420000      -0.89490000
H        2.13720000       0.29810000      -0.41990000
H        0.52690000      -1.60200000       1.40780000
H        1.61910000       2.02380000       1.98220000
H        0.84790000       0.99400000       4.25710000
H       -0.13640000      -0.45990000       3.72080000
H        2.97670000      -0.27640000       3.82630000
H        1.81090000      -2.42510000       4.18340000
