23
Properties=species:S:1:pos:R:3 gdb_63959=T pbc="F F F"
C       -0.08680000       1.56630000       0.01250000
C       -0.01500000       0.03220000       0.00110000
C       -1.44110000      -0.55140000       0.06270000
C        0.76510000      -0.49900000      -1.26240000
C        1.50630000      -1.74730000      -0.75180000
C        3.06440000      -1.95390000      -0.69520000
C        2.94020000      -2.19540000       0.85750000
C        1.59740000      -1.51300000       0.73220000
C        0.85560000      -0.49630000       1.15370000
H        0.91460000       2.00920000       0.02250000
H       -0.61210000       1.93870000      -0.87460000
H       -0.62590000       1.93290000       0.89360000
H       -2.06050000      -0.17230000      -0.75870000
H       -1.42290000      -1.64400000       0.00050000
H       -1.93340000      -0.28180000       1.00360000
H        0.09750000      -0.68810000      -2.10930000
H        1.48840000       0.26200000      -1.57840000
H        1.01260000      -2.68620000      -1.03020000
H        3.48630000      -2.76830000      -1.28940000
H        3.60280000      -1.02730000      -0.91090000
H        2.86680000      -3.26430000       1.08560000
H        3.68590000      -1.74530000       1.51720000
H        0.87350000      -0.02120000       2.12910000
