15
Properties=species:S:1:pos:R:3 gdb_372=T pbc="F F F"
C       -0.08870000       1.54480000       0.05590000
C        0.01270000       0.01820000       0.01030000
C        0.77060000      -0.51500000      -1.23060000
C        2.25570000      -0.10410000      -1.27240000
C        0.65200000      -1.97630000      -1.29360000
N        0.56130000      -3.12810000      -1.33050000
H        0.89120000       2.02130000       0.15160000
H       -0.56730000       1.93860000      -0.84770000
H       -0.69050000       1.85970000       0.91320000
H        0.51040000      -0.35590000       0.91250000
H       -0.99320000      -0.41470000       0.01080000
H        0.27520000      -0.12050000      -2.12820000
H        2.75220000      -0.52570000      -2.14960000
H        2.34720000       0.98330000      -1.31840000
H        2.78010000      -0.45950000      -0.38040000
