20
Properties=species:S:1:pos:R:3 gdb_17446=T pbc="F F F"
C       -0.06740000       1.53270000      -0.04350000
C        0.10320000       0.03100000       0.04920000
C        1.39130000      -0.70820000      -0.20460000
C        2.59270000      -0.00520000       0.37860000
C        3.18440000      -0.83670000       1.48920000
C        1.94450000      -0.02430000       1.77800000
C        1.91420000       1.02980000       2.85270000
C        0.73550000      -0.72660000       1.19470000
H        0.81670000       2.06800000       0.30960000
H       -0.24430000       1.83490000      -1.08210000
H       -0.92510000       1.87010000       0.54940000
H       -0.75130000      -0.51500000      -0.35110000
H        1.44500000      -1.53360000      -0.90710000
H        3.14760000       0.80440000      -0.08340000
H        3.13800000      -1.92180000       1.43720000
H        4.10150000      -0.45110000       1.92720000
H        2.88020000       1.53930000       2.93570000
H        1.14870000       1.78800000       2.66070000
H        1.69630000       0.58380000       3.83100000
H        0.22250000      -1.56070000       1.66380000
