23
Properties=species:S:1:pos:R:3 gdb_121736=T pbc="F F F"
C       -0.09840000       1.47910000       0.16990000
C       -0.00020000      -0.04130000       0.01930000
C        0.73000000      -0.46700000      -1.25830000
C        0.82720000      -1.98500000      -1.40720000
C        1.54840000      -2.41540000      -2.66870000
O        2.01490000      -1.67550000      -3.49910000
O        1.60640000      -3.76090000      -2.75150000
C        2.27230000      -4.29060000      -3.91440000
C        2.23010000      -5.80350000      -3.81920000
H        0.89590000       1.93790000       0.20160000
H       -0.63980000       1.92520000      -0.67170000
H       -0.62350000       1.75680000       1.08910000
H        0.51540000      -0.46380000       0.89230000
H       -1.00870000      -0.47650000       0.02550000
H        0.22110000      -0.05150000      -2.13580000
H        1.73900000      -0.03890000      -1.27250000
H        1.34820000      -2.43600000      -0.55320000
H       -0.16740000      -2.44850000      -1.41540000
H        1.76620000      -3.92170000      -4.81230000
H        3.29830000      -3.90960000      -3.94050000
H        2.72800000      -6.24470000      -4.68790000
H        2.73900000      -6.15280000      -2.91630000
H        1.19820000      -6.16500000      -3.79310000
