17
Properties=species:S:1:pos:R:3 gdb_129964=T pbc="F F F"
N        0.00440000       1.35750000      -0.09320000
C       -0.04290000      -0.02160000      -0.01320000
N       -1.13360000      -0.76300000      -0.07130000
C       -0.65560000      -2.03250000       0.13800000
N        0.65240000      -2.11440000       0.31080000
N        1.03560000      -0.80090000       0.21030000
C       -1.55010000      -3.20400000       0.15430000
C       -1.07900000      -4.53110000      -0.40830000
C       -1.25640000      -4.37440000       1.07220000
H        0.78710000       1.72900000      -0.61410000
H       -0.87270000       1.72960000      -0.43150000
H        1.99490000      -0.54380000       0.36670000
H       -2.58940000      -2.94010000       0.00130000
H       -1.79780000      -5.12760000      -0.95940000
H       -0.06660000      -4.55690000      -0.79430000
H       -0.36320000      -4.29500000       1.68100000
H       -2.09860000      -4.86170000       1.55090000
