10
Properties=species:S:1:pos:R:3 gdb_3706=T pbc="F F F"
C       -0.00680000       1.47770000       0.08790000
C       -0.00970000       0.00420000      -0.05130000
N       -0.10120000      -0.65500000      -1.14710000
O       -0.05650000      -2.01650000      -0.74390000
C        0.06150000      -2.07940000       0.60500000
O        0.12720000      -3.04890000       1.28180000
O        0.09210000      -0.76860000       1.05820000
H        0.92340000       1.81220000       0.55670000
H       -0.10240000       1.93290000      -0.89820000
H       -0.83800000       1.79990000       0.72220000
