13
Properties=species:S:1:pos:R:3 gdb_4247=T pbc="F F F"
N       -0.08960000       1.29580000       0.36560000
C        0.01800000       0.08090000      -0.00640000
N        1.19920000      -0.60940000      -0.29310000
C        1.22970000      -1.92300000      -0.68940000
C        0.11050000      -2.65490000      -0.83380000
C       -1.18990000      -2.04750000      -0.56410000
O       -2.26760000      -2.59910000      -0.65710000
N       -1.10910000      -0.70570000      -0.16670000
H        0.81510000       1.75440000       0.44240000
H        2.05880000      -0.09600000      -0.19670000
H        2.22060000      -2.32100000      -0.87560000
H        0.13600000      -3.68810000      -1.14570000
H       -1.98710000      -0.24540000       0.03060000
