13
Properties=species:S:1:pos:R:3 gdb_123391=T pbc="F F F"
C        0.01760000      -1.14110000      -0.00460000
C        0.03130000       0.05850000       0.00220000
C        0.00310000       1.50840000       0.01100000
O        1.36900000       1.99460000      -0.00190000
C        1.53360000       3.30040000       0.00370000
N        2.67680000       3.92130000      -0.00590000
C        2.25940000       5.22530000       0.00640000
N        0.96980000       5.42640000       0.02250000
O        0.46050000       4.09940000       0.02070000
H        0.01090000      -2.20360000      -0.01080000
H       -0.52430000       1.89950000      -0.86610000
H       -0.50380000       1.88910000       0.90450000
H        2.94410000       6.06170000       0.00330000
