16
Properties=species:S:1:pos:R:3 gdb_127686=T pbc="F F F"
C       -0.00390000       1.40280000       0.06400000
N        0.01230000      -0.05060000       0.03630000
N       -0.02730000      -0.63960000      -1.16140000
N       -0.01620000      -1.90630000      -1.24430000
C        0.03830000      -2.69620000      -0.07040000
N        0.05240000      -3.97480000      -0.10410000
C        0.07770000      -1.97440000       1.20290000
C        0.13420000      -2.72910000       2.48770000
N        0.06420000      -0.67890000       1.23450000
H        0.90100000       1.77700000       0.54990000
H       -0.04750000       1.74890000      -0.96740000
H       -0.87740000       1.75590000       0.61830000
H        0.01900000      -4.28070000      -1.08020000
H        1.01620000      -3.37770000       2.49870000
H        0.15840000      -2.04230000       3.33480000
H       -0.72990000      -3.39710000       2.56420000
