14
Properties=species:S:1:pos:R:3 gdb_77792=T pbc="F F F"
O        0.05570000       1.41950000       0.06970000
C        0.02340000       0.04180000       0.08450000
C       -0.36170000      -0.82030000       1.29490000
C       -1.52760000      -0.18700000       1.96400000
N       -1.83980000       0.07810000       3.14440000
O       -2.25200000       0.01090000       0.77550000
C       -1.24560000      -0.74440000       0.02450000
C       -1.67040000      -1.71190000      -0.91570000
C       -2.01270000      -2.52680000      -1.73120000
H       -0.83000000       1.73700000       0.29050000
H        0.84970000      -0.37940000      -0.48020000
H        0.25400000      -1.61960000       1.68060000
H       -2.76510000       0.50540000       3.20510000
H       -2.31910000      -3.24850000      -2.44820000
