17
Properties=species:S:1:pos:R:3 gdb_89775=T pbc="F F F"
C       -0.03510000       1.51870000       0.04410000
N       -0.01280000       0.07450000       0.13260000
C       -1.26280000      -0.65100000       0.45590000
C       -0.44650000      -1.56350000       1.36930000
C       -0.79500000      -2.50360000       2.42650000
O       -0.28130000      -2.93880000       1.15350000
C        0.71070000      -0.54460000       1.26200000
C        2.05290000      -1.04210000       0.96810000
N        3.11980000      -1.43150000       0.75740000
H        0.97840000       1.89230000      -0.12950000
H       -0.65410000       1.82150000      -0.80570000
H       -0.43500000       2.00470000       0.95400000
H       -2.00070000      -0.04560000       1.00610000
H       -1.74640000      -1.12880000      -0.40140000
H       -0.12180000      -2.64460000       3.27050000
H       -1.84050000      -2.74390000       2.61290000
H        0.76090000       0.09630000       2.15880000
