17
Properties=species:S:1:pos:R:3 gdb_77642=T pbc="F F F"
N       -0.09340000       1.45480000       0.03270000
C       -0.10810000       0.02230000      -0.01940000
C       -1.36030000      -0.79980000       0.04140000
N       -1.49330000      -1.81090000       1.01490000
C       -2.46910000      -0.15970000      -0.80840000
N       -1.52890000       0.02390000      -1.96440000
C       -0.49270000      -0.77410000      -1.26480000
C        0.29510000      -1.76270000      -1.90450000
N        0.93000000      -2.57670000      -2.43280000
H        0.85620000       1.78560000      -0.11100000
H       -0.63990000       1.81440000      -0.74810000
H        0.69260000      -0.44720000       0.54410000
H       -1.57750000      -1.43430000       1.95280000
H       -2.27350000      -2.43240000       0.83500000
H       -3.26680000      -0.87890000      -1.02540000
H       -2.91300000       0.77110000      -0.43850000
H       -1.86180000      -0.45240000      -2.79550000
