17
Properties=species:S:1:pos:R:3 gdb_98378=T pbc="F F F"
C       -0.03430000       1.56190000      -0.01700000
C       -0.04390000       0.03340000      -0.05740000
C        0.68780000      -0.50000000      -1.28310000
O        1.17190000       0.24210000      -2.10620000
N        0.80290000      -1.90740000      -1.44850000
C        1.58580000      -2.33950000      -2.56060000
N        1.44480000      -3.48290000      -3.07530000
C        0.25070000      -2.82180000      -0.52350000
O        0.45880000      -4.00050000      -0.49900000
H        0.98730000       1.94660000       0.01680000
H       -0.51360000       1.98080000      -0.90410000
H       -0.56940000       1.91350000       0.86900000
H        0.41660000      -0.37890000       0.84800000
H       -1.07560000      -0.33940000      -0.06720000
H        2.26620000      -1.55280000      -2.88430000
H        2.10810000      -3.59320000      -3.84260000
H       -0.40580000      -2.32030000       0.20260000
