19
Properties=species:S:1:pos:R:3 gdb_65385=T pbc="F F F"
O        0.01940000       1.38770000       0.04770000
C       -0.00550000       0.00260000       0.01660000
C       -0.47930000      -0.72690000       1.25730000
C       -1.36780000      -0.71600000       0.04710000
C       -2.60760000       0.11390000      -0.00800000
C       -3.49960000       0.06170000      -1.22310000
C       -3.96290000      -0.54830000       0.07610000
C        1.04060000      -0.59370000      -0.83060000
O        1.79790000       0.08950000      -1.48600000
H        0.67850000       1.63690000      -0.61990000
H        0.01720000      -1.64730000       1.54720000
H       -0.74330000      -0.06920000       2.07840000
H       -1.41970000      -1.64690000      -0.51400000
H       -2.50930000       1.08280000       0.46900000
H       -3.96130000       0.98360000      -1.55810000
H       -3.22200000      -0.61170000      -2.02770000
H       -3.99520000      -1.63080000       0.14450000
H       -4.74360000      -0.04610000       0.63670000
H        1.08010000      -1.70240000      -0.85090000
