20
Properties=species:S:1:pos:R:3 gdb_81930=T pbc="F F F"
C        0.46290000       1.60930000       0.00050000
C        0.15200000       0.11420000      -0.02060000
N        0.67890000      -0.60210000      -1.18780000
C       -0.25630000      -0.73000000      -2.28910000
C        1.27370000      -1.85930000      -0.75200000
C        2.60240000      -1.73200000      -0.08660000
C        1.33480000      -1.89420000       0.75960000
C        0.68120000      -0.63260000       1.21960000
O        0.50840000      -0.27250000       2.35750000
H        1.53960000       1.77980000      -0.08630000
H       -0.03100000       2.12780000      -0.82650000
H        0.11170000       2.04060000       0.94200000
H       -0.94570000      -0.01820000       0.03870000
H       -0.57430000       0.26380000      -2.61860000
H        0.23230000      -1.21700000      -3.13860000
H       -1.16510000      -1.30800000      -2.03430000
H        1.02740000      -2.73960000      -1.33570000
H        3.26940000      -2.58690000      -0.07600000
H        3.09210000      -0.76500000      -0.12130000
H        1.23070000      -2.78080000       1.37200000
