18
Properties=species:S:1:pos:R:3 gdb_88030=T pbc="F F F"
C       -0.08940000       1.48210000      -0.01900000
C        0.08870000      -0.01940000      -0.04750000
C        1.48660000      -0.63080000      -0.12610000
C        0.68930000      -0.71850000       1.12860000
O        1.06120000      -0.02920000       2.32340000
C        0.44860000      -1.04110000       3.14520000
C        0.17780000      -1.94200000       1.90660000
C       -1.18800000      -2.37080000       1.66420000
N       -2.27730000      -2.69980000       1.46030000
H        0.66940000       1.95200000       0.61270000
H       -0.01210000       1.90660000      -1.02500000
H       -1.07010000       1.75100000       0.38670000
H       -0.69300000      -0.57190000      -0.56410000
H        1.63860000      -1.52870000      -0.71670000
H        2.33020000       0.05280000      -0.11100000
H        1.14460000      -1.45170000       3.88200000
H       -0.45700000      -0.68010000       3.64360000
H        0.85060000      -2.80120000       1.84940000
