20
Properties=species:S:1:pos:R:3 gdb_111587=T pbc="F F F"
O        0.07820000       1.47820000       0.38670000
C        0.13600000       0.14880000      -0.10700000
C       -1.21080000      -0.53110000       0.03460000
C       -1.46100000      -2.02610000      -0.24980000
C       -0.48520000      -3.00040000       0.46680000
C       -1.18530000      -2.72270000       1.82250000
C       -0.83610000      -1.33610000       2.38670000
N       -1.77600000      -0.63270000       1.43910000
C       -2.33580000      -2.00460000       1.04660000
H       -0.48040000       1.45960000       1.17290000
H        0.41000000       0.20850000      -1.16720000
H        0.93000000      -0.42450000       0.39550000
H       -1.94080000       0.06470000      -0.52780000
H       -1.81270000      -2.30220000      -1.24480000
H       -0.67550000      -4.02600000       0.13750000
H        0.59080000      -2.81210000       0.39950000
H       -1.31390000      -3.55410000       2.51630000
H       -1.20670000      -1.19180000       3.40670000
H        0.21040000      -1.01580000       2.35480000
H       -3.40710000      -2.18670000       1.12160000
