21
Properties=species:S:1:pos:R:3 gdb_108064=T pbc="F F F"
C        0.11900000       1.44850000       0.23440000
C       -0.11840000      -0.02450000      -0.12680000
C        0.66090000      -0.46880000      -1.33190000
C        0.48580000       0.00020000      -2.78310000
C        1.40280000      -1.19150000      -3.14430000
O        2.69020000      -0.80930000      -2.58440000
C        2.10520000      -1.03210000      -1.29360000
C        3.01210000      -1.10980000      -0.11290000
C        0.99150000      -1.89270000      -1.80050000
H        1.17210000       1.63350000       0.46870000
H       -0.15530000       2.10700000      -0.59630000
H       -0.47790000       1.74150000       1.10350000
H        0.13730000      -0.65960000       0.73110000
H       -1.18950000      -0.18800000      -0.30870000
H       -0.54260000      -0.15610000      -3.12310000
H        0.84250000       0.99270000      -3.07790000
H        1.47050000      -1.61920000      -4.14230000
H        3.54760000      -0.16410000       0.02490000
H        2.44660000      -1.31790000       0.79960000
H        3.75330000      -1.90420000      -0.24560000
H        0.60900000      -2.86780000      -1.52900000
