19
Properties=species:S:1:pos:R:3 gdb_39847=T pbc="F F F"
C       -0.12490000       1.38980000      -0.04940000
C        1.28760000       0.87190000       0.03640000
C        1.94720000       0.67850000       1.39680000
C        1.18690000       1.00540000       2.65620000
C        1.19920000      -0.41280000       2.13390000
C        0.06350000      -0.86040000       1.23760000
C       -0.49720000      -2.21500000       1.31700000
O       -1.22550000      -1.09940000       1.82870000
C        0.13060000      -0.09960000      -0.07010000
H       -0.59880000       1.83740000       0.81540000
H       -0.42780000       1.83710000      -0.99040000
H        1.94780000       1.04590000      -0.80510000
H        3.02930000       0.72900000       1.42540000
H        1.77360000       1.19190000       3.54960000
H        0.27160000       1.58230000       2.61060000
H        1.70990000      -1.16970000       2.71870000
H       -0.91460000      -2.68070000       0.42390000
H       -0.11940000      -2.91370000       2.06390000
H       -0.08490000      -0.64370000      -0.98290000
