21
Properties=species:S:1:pos:R:3 gdb_79630=T pbc="F F F"
C       -1.19720000       0.35470000       0.39880000
C       -0.36120000      -0.88850000       0.63580000
C        0.98370000      -1.23820000       0.02490000
C        1.94960000      -0.16480000      -0.42340000
O        1.55090000       1.19800000      -0.19010000
C        2.44450000       0.58190000       0.74400000
C        1.78980000       0.03460000       2.01190000
C        1.17820000       1.10400000       2.92610000
C        0.84060000      -1.08380000       1.53660000
H       -1.74340000       0.25880000      -0.54680000
H       -1.94310000       0.45790000       1.19550000
H       -0.60250000       1.26180000       0.34610000
H       -0.99630000      -1.77360000       0.67930000
H        1.10580000      -2.20880000      -0.44450000
H        2.53790000      -0.31750000      -1.32430000
H        3.42990000       1.04150000       0.79990000
H        2.59430000      -0.46610000       2.56920000
H        0.41230000       1.68010000       2.40290000
H        0.71540000       0.64450000       3.80490000
H        1.94440000       1.80250000       3.27910000
H        0.81060000      -1.96200000       2.17450000
