19
Properties=species:S:1:pos:R:3 gdb_101089=T pbc="F F F"
C        0.01700000       1.49160000      -0.03870000
C       -0.01750000      -0.03690000      -0.10110000
C       -1.41890000      -0.60520000       0.16970000
O       -2.38080000      -0.08740000      -0.73690000
C       -1.43020000      -2.13240000       0.12380000
C       -2.62660000      -2.85830000      -0.35890000
O       -1.48750000      -2.70140000      -1.19890000
C       -0.55850000      -2.90600000       1.06380000
O       -0.06060000      -2.45140000       2.06220000
H        1.01580000       1.86960000      -0.27540000
H       -0.69410000       1.92750000      -0.74470000
H       -0.24640000       1.84880000       0.96290000
H        0.31100000      -0.38430000      -1.09060000
H        0.67780000      -0.45950000       0.63060000
H       -1.74960000      -0.29430000       1.16710000
H       -2.13760000      -0.42140000      -1.61030000
H       -2.81840000      -3.87640000      -0.02370000
H       -3.49290000      -2.25900000      -0.62350000
H       -0.42060000      -3.96700000       0.75730000
