18
Properties=species:S:1:pos:R:3 gdb_85305=T pbc="F F F"
C       -0.27640000       1.55180000       0.13580000
C        0.08590000       0.08000000       0.00750000
O        0.92910000      -0.07540000      -1.16780000
C        2.18270000      -0.58160000      -1.05000000
O        2.88710000      -0.69730000      -2.01290000
C        2.55300000      -1.00400000       0.36210000
C        1.39960000      -1.86680000       0.93470000
C        0.78620000      -0.48120000       1.24300000
N        2.15950000       0.13980000       1.26570000
H        0.61110000       2.12980000       0.40360000
H       -0.67400000       1.92530000      -0.81070000
H       -1.03850000       1.68910000       0.91000000
H       -0.81150000      -0.51680000      -0.19740000
H        3.58810000      -1.33960000       0.39690000
H        0.86570000      -2.55290000       0.26990000
H        1.70680000      -2.38980000       1.84360000
H        0.17200000      -0.34030000       2.13530000
H        2.57240000      -0.04180000       2.17950000
