19
Properties=species:S:1:pos:R:3 gdb_36794=T pbc="F F F"
C       -0.03290000      -1.14240000      -0.00020000
C        0.03380000       0.05370000      -0.08120000
C        0.07970000       1.50610000      -0.18760000
O        1.38520000       1.97190000       0.09020000
C        1.48520000       3.37900000       0.00340000
C        2.93070000       3.77080000       0.28860000
C        3.12360000       5.26620000       0.25920000
C        4.33300000       5.89210000      -0.28720000
O        3.11440000       5.88650000      -1.03210000
H       -0.08500000      -2.20050000       0.07230000
H       -0.23330000       1.81400000      -1.20020000
H       -0.64700000       1.95180000       0.51390000
H        1.19160000       3.73050000      -0.99880000
H        0.80420000       3.85770000       0.72940000
H        3.21750000       3.38190000       1.27310000
H        3.58190000       3.29900000      -0.45410000
H        2.56650000       5.82650000       1.01340000
H        4.65390000       6.86610000       0.07950000
H        5.12720000       5.26170000      -0.68550000
