21
Properties=species:S:1:pos:R:3 gdb_106383=T pbc="F F F"
C        0.06940000       1.53960000       0.14450000
C        0.02100000       0.02070000      -0.04530000
C        0.66970000      -0.47120000      -1.31450000
C        0.43600000       0.11130000      -2.74510000
C        1.86970000      -0.46290000      -2.86580000
O        2.08220000      -0.09790000      -1.47170000
C        1.63160000      -1.98820000      -2.79700000
C        2.05010000      -2.66620000      -1.51740000
C        0.70100000      -1.99710000      -1.60030000
H        1.09910000       1.90130000       0.08340000
H       -0.51550000       2.05800000      -0.62190000
H       -0.33750000       1.82190000       1.12000000
H        0.52130000      -0.47700000       0.79530000
H       -1.01780000      -0.33400000      -0.03570000
H       -0.35740000      -0.31940000      -3.36230000
H        0.41830000       1.20250000      -2.76260000
H        2.62340000      -0.06700000      -3.54660000
H        1.44670000      -2.55110000      -3.70370000
H        2.04410000      -3.75130000      -1.53050000
H        2.82540000      -2.21400000      -0.91190000
H       -0.21830000      -2.56890000      -1.56070000
