16
Properties=species:S:1:pos:R:3 gdb_30437=T pbc="F F F"
C       -0.08370000       1.38100000       0.13130000
N       -0.00950000      -0.06390000       0.02000000
C        0.57390000      -0.55700000      -1.00390000
N        0.62650000      -1.96870000      -1.07740000
C        1.20640000      -2.63330000      -2.09260000
O        1.14970000      -3.96530000      -1.97420000
N        1.78330000      -2.08420000      -3.11910000
C        1.77030000      -0.70850000      -3.11510000
C        1.21580000       0.06360000      -2.14630000
H        0.90810000       1.85670000       0.17250000
H       -0.63510000       1.84470000      -0.70100000
H       -0.60850000       1.63980000       1.05480000
H        0.19820000      -2.47460000      -0.31390000
H        1.59580000      -4.31750000      -2.75740000
H        2.25280000      -0.24990000      -3.97360000
H        1.24470000       1.14180000      -2.21200000
