19
Properties=species:S:1:pos:R:3 gdb_37423=T pbc="F F F"
C       -0.05330000       1.56500000      -0.00140000
C        1.49260000       1.53860000       0.01210000
C        2.20570000       1.44790000       1.38110000
C        2.04200000      -0.09930000       1.28270000
C        0.95640000      -0.75590000       2.12210000
N       -0.12770000       0.15490000       2.54260000
C       -0.31280000      -0.69010000       1.34540000
C       -0.00830000       0.00700000       0.02790000
N        1.49870000       0.02760000      -0.12580000
H       -0.53790000       2.03570000       0.85510000
H       -0.46950000       1.96810000      -0.92720000
H        1.99820000       2.11790000      -0.76490000
H        3.24710000       1.77540000       1.34730000
H        1.69910000       1.91980000       2.22410000
H        2.97070000      -0.67460000       1.32590000
H        1.20030000      -1.60430000       2.75320000
H       -0.62930000      -0.25430000       3.32760000
H       -1.04780000      -1.48770000       1.37740000
H       -0.51000000      -0.49420000      -0.80420000
