14
Properties=species:S:1:pos:R:3 gdb_130336=T pbc="F F F"
N        0.01370000       0.98040000      -0.03480000
H        0.28650000      -0.01050000       0.03840000
H        0.87100000       1.50050000      -0.25610000
H       -0.61370000       1.06670000      -0.83720000
C       -0.64900000       1.50400000       1.16060000
C       -2.01800000       1.79740000       1.27750000
C       -2.30050000       2.20200000       2.60690000
C       -1.07650000       2.12840000       3.28380000
C       -0.05440000       1.69460000       2.42530000
N        1.10140000       1.64570000       3.13690000
N        0.89600000       2.00270000       4.33460000
O       -0.53220000       2.33860000       4.48850000
H       -2.74710000       1.73270000       0.47740000
H       -3.26120000       2.51000000       2.98670000
