19
Properties=species:S:1:pos:R:3 gdb_116819=T pbc="F F F"
C       -0.46870000       0.00100000       0.50140000
O        0.85370000      -0.21220000       0.01520000
C        0.95920000      -1.03860000      -1.03730000
N        2.09070000      -1.36170000      -1.48960000
C        2.11750000      -2.26370000      -2.62150000
C        2.79990000      -3.57840000      -2.24340000
O        2.00680000      -4.32760000      -1.32680000
C        2.26220000      -4.17170000      -0.01230000
N        1.49980000      -4.70280000       0.84350000
H       -1.12880000       0.38200000      -0.28710000
H       -0.89200000      -0.92040000       0.91710000
H       -0.38750000       0.74830000       1.29120000
H       -0.00140000      -1.38060000      -1.45280000
H        1.11550000      -2.48970000      -3.02260000
H        2.70350000      -1.80630000      -3.42980000
H        2.91960000      -4.20770000      -3.12990000
H        3.79090000      -3.37600000      -1.81860000
H        3.16190000      -3.57770000       0.19080000
H        1.85430000      -4.51280000       1.77870000
