11
Properties=species:S:1:pos:R:3 gdb_11192=T pbc="F F F"
O        0.04360000       0.03030000      -0.06270000
C       -0.00440000       1.21220000      -0.02620000
O       -1.12480000       1.96260000      -0.17320000
C       -0.84340000       3.33360000       0.08350000
C        0.70550000       3.38970000       0.03470000
O        1.08200000       2.02420000       0.18070000
C        1.22500000       3.94010000      -1.22600000
N        1.61440000       4.40430000      -2.20890000
H       -1.32030000       3.94930000      -0.67900000
H       -1.21910000       3.60620000       1.07400000
H        1.12530000       3.95840000       0.86780000
