18
Properties=species:S:1:pos:R:3 gdb_47266=T pbc="F F F"
O        0.42870000       0.03590000       0.59620000
C        0.14910000       1.09630000       0.06400000
N       -0.99650000       1.78900000       0.37550000
C       -1.67210000       2.76570000      -0.47640000
C       -1.32660000       4.22350000      -0.26520000
C       -0.14130000       4.74000000       0.05380000
C        1.13560000       3.95890000       0.30600000
C        1.49230000       3.00480000      -0.81400000
C        1.04820000       1.75170000      -0.93260000
H       -1.56190000       1.31870000       1.06790000
H       -1.50160000       2.50660000      -1.53010000
H       -2.74620000       2.63760000      -0.30960000
H       -2.15540000       4.90740000      -0.43610000
H       -0.06650000       5.82050000       0.14750000
H        1.96040000       4.66430000       0.44160000
H        1.04370000       3.40490000       1.24640000
H        2.18470000       3.38340000      -1.56280000
H        1.41870000       1.10240000      -1.71960000
