14
Properties=species:S:1:pos:R:3 gdb_6078=T pbc="F F F"
N       -0.12690000       1.00820000       0.32470000
C       -0.17270000      -0.30560000      -0.05170000
O        0.75640000      -1.07220000       0.07010000
C       -1.49350000      -0.70770000      -0.72680000
O       -1.58230000      -2.11160000      -0.86800000
C       -1.83970000      -2.77220000       0.29670000
N       -1.79230000      -4.11850000       0.08150000
O       -2.12210000      -2.22910000       1.33820000
H        0.67580000       1.29600000       0.86270000
H       -0.97570000       1.53320000       0.45610000
H       -2.34610000      -0.32170000      -0.15980000
H       -1.51870000      -0.30180000      -1.74190000
H       -1.28500000      -4.44720000      -0.72340000
H       -1.76000000      -4.68750000       0.91060000
