22
Properties=species:S:1:pos:R:3 gdb_113723=T pbc="F F F"
C        1.46800000       0.38900000       1.17030000
C        0.56580000       0.84390000       0.01580000
C        0.92740000       0.13580000      -1.27620000
C        0.26960000      -1.14570000      -1.66500000
N        0.06640000       0.05780000      -2.46310000
C       -1.26750000       0.67300000      -2.45300000
C       -1.15650000       2.12760000      -2.93680000
C       -2.16160000      -0.10450000      -3.31500000
C       -2.90850000      -0.73150000      -4.01690000
H        1.35440000      -0.68340000       1.35880000
H        2.52320000       0.57610000       0.94350000
H        1.22580000       0.92300000       2.09390000
H       -0.47960000       0.65690000       0.28140000
H        0.66710000       1.92890000      -0.11740000
H        1.97620000       0.26070000      -1.54800000
H        0.82240000      -1.94880000      -2.14510000
H       -0.55500000      -1.48080000      -1.03560000
H       -1.71460000       0.67650000      -1.44440000
H       -0.72080000       2.15300000      -3.93820000
H       -2.14240000       2.59850000      -2.96610000
H       -0.51420000       2.70050000      -2.26210000
H       -3.56560000      -1.28900000      -4.63740000
