18
Properties=species:S:1:pos:R:3 gdb_76861=T pbc="F F F"
O        0.14670000       1.37700000      -0.14580000
C        0.07310000      -0.02060000      -0.06600000
C        0.33440000      -0.57380000       1.40030000
O        0.41770000       0.47330000       2.35380000
C       -1.09830000      -1.16120000       1.41860000
C       -1.36580000      -0.62540000      -0.00490000
C       -1.55880000      -2.09360000      -0.42050000
C       -0.41580000      -2.96160000      -0.08440000
N       -1.34700000      -2.60220000       1.00480000
H       -0.07690000       1.70300000       0.73790000
H        0.71490000      -0.43200000      -0.85090000
H        1.16010000      -1.28480000       1.52040000
H        1.31540000       0.82300000       2.33200000
H       -1.69390000      -0.89860000       2.29210000
H       -2.18310000       0.05490000      -0.23820000
H       -2.38960000      -2.45120000      -1.02060000
H       -0.50110000      -4.01050000      -0.35290000
H        0.60610000      -2.59660000      -0.09330000
