19
Properties=species:S:1:pos:R:3 gdb_86037=T pbc="F F F"
C       -0.03960000       1.45040000       0.18090000
N        0.13900000       0.01800000       0.10190000
C        1.14270000      -0.52810000      -0.83260000
C        1.38500000      -1.67050000       0.19490000
O        0.58970000      -2.80930000      -0.03990000
C        2.81300000      -2.17050000       0.39800000
C        2.95690000      -2.95090000       1.62680000
N        3.07630000      -3.54550000       2.60990000
C        0.77530000      -0.68860000       1.23250000
H        0.90320000       1.99110000       0.38890000
H       -0.44710000       1.82690000      -0.76300000
H       -0.75290000       1.69180000       0.97560000
H        0.76350000      -0.82040000      -1.81740000
H        2.02510000       0.12310000      -0.95710000
H       -0.32410000      -2.51000000      -0.11560000
H        3.09520000      -2.79560000      -0.45620000
H        3.50690000      -1.32560000       0.43710000
H        1.54790000      -0.09030000       1.74440000
H        0.09240000      -1.11010000       1.97680000
