19
Properties=species:S:1:pos:R:3 gdb_115459=T pbc="F F F"
O       -0.04030000       1.42710000       0.13020000
C       -0.06880000       0.04210000      -0.14250000
C       -1.45630000      -0.54380000       0.05770000
C       -1.58970000      -2.05630000      -0.14800000
C       -2.76240000      -2.43980000       0.78180000
C       -2.84400000      -1.22900000       1.76960000
O       -1.79300000      -0.35150000       1.43880000
C       -4.20930000      -0.56190000       1.66710000
O       -4.41080000       0.52140000       1.18830000
H       -0.46740000       1.54370000       0.98680000
H        0.24160000      -0.08560000      -1.18520000
H        0.64050000      -0.51370000       0.49350000
H       -2.17550000       0.00460000      -0.56770000
H       -1.77530000      -2.32520000      -1.19010000
H       -0.66910000      -2.55460000       0.17340000
H       -3.69460000      -2.55240000       0.21950000
H       -2.58650000      -3.37910000       1.30850000
H       -2.70890000      -1.54900000       2.81120000
H       -5.04150000      -1.19150000       2.06550000
