16
Properties=species:S:1:pos:R:3 gdb_22856=T pbc="F F F"
C        0.00240000       1.50210000       0.02130000
C       -0.00880000       0.01000000      -0.01650000
C       -1.04810000      -0.83240000      -0.12560000
C       -0.65410000      -2.28680000      -0.12810000
C        0.85140000      -2.21870000       0.00160000
N        1.55080000      -3.28740000       0.03460000
O        2.90770000      -3.06560000       0.15540000
C        1.25930000      -0.76520000       0.07220000
O        2.37420000      -0.30350000       0.17840000
H        0.61150000       1.90190000      -0.79660000
H       -1.00530000       1.91810000      -0.05340000
H        0.46430000       1.85880000       0.94830000
H       -2.08580000      -0.52530000      -0.20620000
H       -1.11410000      -2.83910000       0.70080000
H       -0.96540000      -2.79590000      -1.04880000
H        3.26190000      -3.96260000       0.16330000
