14
Properties=species:S:1:pos:R:3 gdb_61132=T pbc="F F F"
N       -0.10000000       1.50180000       0.06120000
C        0.00100000       0.04910000       0.01960000
C        0.69580000      -0.54850000      -1.25380000
C        0.02030000      -0.09690000      -2.46540000
N       -0.54320000       0.29370000      -3.39560000
C        0.69920000      -0.44230000       1.20630000
C        1.30460000      -0.86240000       2.16250000
C        1.98460000      -1.33380000       3.24950000
N        2.56590000      -1.73670000       4.17060000
H        0.81990000       1.93000000       0.01610000
H       -0.63590000       1.83270000      -0.73580000
H       -1.02270000      -0.34650000       0.04380000
H        1.74300000      -0.22910000      -1.28160000
H        0.68760000      -1.64280000      -1.21380000
