19
Properties=species:S:1:pos:R:3 gdb_36652=T pbc="F F F"
C        0.71260000      -0.24010000       1.27470000
C        0.38570000       0.59090000       0.47000000
C       -0.03580000       1.58080000      -0.52480000
O        0.98490000       2.46300000      -0.95830000
C        1.38010000       3.40070000       0.00490000
C        2.50670000       3.17580000       0.96830000
C        3.59580000       2.30390000       0.33210000
C        3.71280000       3.31750000      -0.84990000
C        2.62460000       4.18670000      -0.20590000
H        1.00390000      -0.96940000       1.98960000
H       -0.38270000       1.06580000      -1.42710000
H       -0.89070000       2.15160000      -0.12740000
H        0.54460000       3.97140000       0.41520000
H        2.38680000       3.35920000       2.03000000
H        4.50620000       2.26800000       0.93390000
H        3.29330000       1.28450000       0.08180000
H        4.68420000       3.81540000      -0.87260000
H        3.48330000       2.93710000      -1.84820000
H        2.61600000       5.27080000      -0.19410000
