20
Properties=species:S:1:pos:R:3 gdb_39918=T pbc="F F F"
C       -0.02450000       1.51210000      -0.00530000
N        1.25060000       0.77880000       0.05040000
C       -0.02390000       0.02250000       0.00380000
C       -0.37040000      -0.74350000       1.23410000
C       -0.96420000      -1.93070000       1.09400000
C       -1.23930000      -2.43200000      -0.30930000
C        0.04850000      -2.21150000      -1.16560000
C       -0.41080000      -0.72540000      -1.26580000
C       -1.86760000      -1.26350000      -1.13340000
H       -0.27390000       2.06400000       0.89720000
H       -0.30760000       2.00920000      -0.93070000
H        1.68200000       0.76750000      -0.87200000
H       -0.11580000      -0.31240000       2.19660000
H       -1.24500000      -2.53830000       1.94820000
H       -1.72340000      -3.40920000      -0.32810000
H        1.01130000      -2.42590000      -0.69660000
H       -0.01820000      -2.71080000      -2.13600000
H       -0.14410000      -0.15210000      -2.15910000
H       -2.25240000      -1.60380000      -2.09880000
H       -2.60810000      -0.63380000      -0.63510000
