14
Properties=species:S:1:pos:R:3 gdb_48530=T pbc="F F F"
O       -0.87730000       1.13590000       0.46720000
C        0.15670000       0.84770000      -0.08530000
C        1.37320000       1.66690000       0.00350000
C        1.97140000       2.61360000       0.99500000
C        3.31270000       1.90820000       0.78420000
N        2.77610000       1.36470000      -0.53670000
C        2.64120000       2.64490000      -1.29850000
O        3.15210000       2.98350000      -2.31440000
C        1.57310000       3.15280000      -0.38170000
H        0.26970000      -0.06420000      -0.70740000
H        1.50950000       3.00360000       1.89350000
H        4.22120000       2.50960000       0.68160000
H        3.47380000       1.08670000       1.48410000
H        0.81250000       3.90940000      -0.51730000
