17
Properties=species:S:1:pos:R:3 gdb_113617=T pbc="F F F"
O       -0.17360000       1.40690000      -0.58160000
C       -0.03630000       0.15490000       0.07430000
C       -1.38800000      -0.50900000       0.06220000
C       -1.84300000      -1.27990000      -1.13120000
C       -1.51310000      -2.03140000       0.15980000
C       -0.35990000      -2.86740000       0.22570000
C        0.59980000      -3.60200000       0.30340000
C        1.75960000      -4.44530000       0.36350000
O        1.82930000      -5.48420000       0.98240000
H        0.66070000       1.87880000      -0.50200000
H        0.69690000      -0.49010000      -0.43230000
H        0.30330000       0.28250000       1.11400000
H       -2.15180000       0.03480000       0.60980000
H       -2.88670000      -1.24270000      -1.42020000
H       -1.14450000      -1.39600000      -1.95170000
H       -2.36430000      -2.39030000       0.73020000
H        2.62370000      -4.06420000      -0.21990000
