15
Properties=species:S:1:pos:R:3 gdb_13479=T pbc="F F F"
N       -0.05550000       1.34140000      -0.36640000
C        0.05200000      -0.00210000      -0.05410000
O        1.10090000      -0.57380000       0.15480000
N       -1.16690000      -0.65960000       0.03430000
C       -1.39870000      -2.09270000       0.26120000
C       -2.92110000      -1.76550000       0.32350000
C       -2.52420000      -0.30080000       0.17410000
N       -3.18670000       0.77210000       0.21950000
H        0.83560000       1.76520000      -0.57950000
H       -0.80910000       1.61750000      -0.97860000
H       -1.07050000      -2.72240000      -0.56890000
H       -0.95900000      -2.45560000       1.19290000
H       -3.51070000      -2.15440000      -0.50830000
H       -3.42110000      -2.00050000       1.26380000
H       -2.59690000       1.60220000       0.16520000
