17
Properties=species:S:1:pos:R:3 gdb_87102=T pbc="F F F"
C        0.25160000       0.94250000      -0.54200000
C        0.58500000      -0.33810000       0.17870000
O        1.87000000      -0.46310000       0.78000000
C        0.73090000      -0.45200000       1.65570000
C        0.57900000       0.71210000       2.60380000
C        0.40850000      -1.79670000       2.26850000
O       -0.19760000      -1.88980000       3.31490000
C        0.86050000      -2.97460000       1.54570000
C        1.20410000      -3.98200000       0.98400000
H        0.60190000       1.82370000      -0.00300000
H        0.72190000       0.94040000      -1.53090000
H       -0.83070000       1.02330000      -0.68710000
H        0.27030000      -1.24280000      -0.34470000
H        0.85680000       1.64990000       2.12300000
H       -0.45130000       0.77760000       2.96150000
H        1.22030000       0.56840000       3.47800000
H        1.51410000      -4.87150000       0.49120000
