13
Properties=species:S:1:pos:R:3 gdb_129257=T pbc="F F F"
N       -0.01940000       1.17680000       0.62330000
C       -0.04900000       0.05130000       0.04100000
O        1.11960000      -0.49930000      -0.48690000
N        1.18250000      -1.71800000      -1.13700000
C        0.07310000      -2.38340000      -1.25700000
C       -1.20710000      -1.91620000      -0.74970000
C       -1.25690000      -0.73400000      -0.12140000
C        0.15430000      -3.63750000      -1.92930000
C        0.16290000      -4.70250000      -2.48780000
H        0.92660000       1.56110000       0.62990000
H       -2.08100000      -2.53880000      -0.89560000
H       -2.16650000      -0.31130000       0.28640000
H        0.19080000      -5.64150000      -2.98420000
