13
Properties=species:S:1:pos:R:3 gdb_21812=T pbc="F F F"
O       -0.08080000       0.03280000       0.45020000
C        0.05540000       1.01100000      -0.23010000
C        1.28430000       1.91720000      -0.12720000
N        1.32330000       2.91900000      -1.16620000
N        1.66260000       2.61720000      -2.41640000
C        1.50550000       3.77070000      -3.06780000
C        1.05880000       4.74050000      -2.15950000
N        0.94390000       4.17660000      -0.95600000
H       -0.70090000       1.33540000      -0.97730000
H        1.26310000       2.43670000       0.83370000
H        2.18540000       1.30160000      -0.17700000
H        1.71750000       3.84660000      -4.12220000
H        0.82680000       5.78270000      -2.30870000
