23
Properties=species:S:1:pos:R:3 gdb_104178=T pbc="F F F"
C        0.02880000       1.38580000       0.05560000
O       -0.03910000      -0.02920000       0.04400000
C       -1.34460000      -0.58940000      -0.01640000
C       -2.10590000      -0.16510000      -1.26800000
C       -1.13900000      -2.11700000       0.14450000
C       -1.77120000      -2.46040000       1.51250000
C       -1.02480000      -3.52050000       2.31920000
C       -1.83040000      -1.07660000       2.17490000
O       -2.11430000      -0.18020000       1.10650000
H        1.05060000       1.64630000       0.34280000
H       -0.17380000       1.81980000      -0.93330000
H       -0.66960000       1.81420000       0.78320000
H       -1.50950000      -0.37210000      -2.16080000
H       -3.04680000      -0.71700000      -1.33240000
H       -2.34460000       0.90070000      -1.23920000
H       -1.59660000      -2.67440000      -0.67600000
H       -0.06610000      -2.32250000       0.13700000
H       -2.80310000      -2.79440000       1.35050000
H        0.01180000      -3.21540000       2.50160000
H       -1.50120000      -3.69170000       3.29080000
H       -1.00180000      -4.47860000       1.79020000
H       -2.62310000      -0.97170000       2.92030000
H       -0.86750000      -0.82950000       2.64770000
