19
Properties=species:S:1:pos:R:3 gdb_88238=T pbc="F F F"
O        0.02670000       1.42000000       0.10540000
C        0.01990000       0.03170000       0.07460000
C       -0.41460000      -0.75750000       1.27220000
C       -1.30970000      -0.71540000       0.02820000
C       -2.50360000       0.07510000       0.04140000
C       -3.46890000       0.80350000       0.03100000
C       -4.64010000       1.63070000       0.04100000
C       -4.75210000       2.82120000      -0.90090000
C       -5.59920000       1.60880000      -1.14060000
H       -0.88990000       1.71750000       0.01850000
H        0.82550000      -0.36790000      -0.53550000
H        0.07910000      -1.69680000       1.49590000
H       -0.75400000      -0.19340000       2.13300000
H       -1.34370000      -1.61780000      -0.57490000
H       -5.10240000       1.76030000       1.01560000
H       -5.22310000       3.71680000      -0.51180000
H       -3.91820000       3.00010000      -1.56910000
H       -5.34120000       0.96170000      -1.97010000
H       -6.65870000       1.66140000      -0.91720000
