14
Properties=species:S:1:pos:R:3 gdb_124234=T pbc="F F F"
C       -0.12980000       1.34150000      -0.12700000
C        0.10900000      -0.13280000      -0.01760000
N        1.23920000      -0.67350000       0.00310000
O       -1.15320000      -0.76650000       0.05480000
C       -1.30580000      -2.09000000       0.15980000
N       -0.37260000      -3.00480000       0.21280000
O       -1.05000000      -4.19720000       0.31740000
N       -2.40080000      -4.00660000       0.32840000
C       -2.58320000      -2.72340000       0.23260000
H        0.82880000       1.85420000      -0.18440000
H       -0.72430000       1.56650000      -1.01780000
H       -0.69170000       1.70230000       0.74000000
H        1.21240000      -1.68890000       0.08200000
H       -3.56570000      -2.27990000       0.21680000
