21
Properties=species:S:1:pos:R:3 gdb_71594=T pbc="F F F"
C        0.02240000       1.50940000      -0.04650000
C        0.04570000       0.00470000      -0.05220000
C        0.66750000      -0.95570000      -1.09680000
C        0.05900000      -1.89990000      -0.03610000
C        0.58900000      -0.94300000       1.08090000
C       -0.44900000      -0.94030000       2.19000000
O       -1.65810000      -0.94760000       1.42010000
C       -1.18640000      -0.96420000       0.07330000
C       -2.35150000      -0.98020000      -0.87870000
H        1.03520000       1.92550000      -0.00690000
H       -0.46310000       1.89960000      -0.94790000
H       -0.53250000       1.88710000       0.81930000
H        0.22630000      -0.96650000      -2.09740000
H        1.75920000      -0.94930000      -1.16000000
H        0.06820000      -2.99060000      -0.01610000
H        1.65000000      -0.93350000       1.33330000
H       -0.40350000      -1.82810000       2.83400000
H       -0.40830000      -0.04600000       2.82540000
H       -2.97530000      -0.09340000      -0.72960000
H       -2.01860000      -0.99870000      -1.91920000
H       -2.97480000      -1.86140000      -0.69900000
