18
Properties=species:S:1:pos:R:3 gdb_80150=T pbc="F F F"
C        0.04460000       1.56720000      -0.04820000
C        0.09530000       0.06010000       0.06600000
C        1.36750000      -0.77620000      -0.14210000
N        2.63330000      -0.14010000      -0.34050000
C        3.09490000       0.57540000       0.59460000
O        2.56370000       0.83610000       1.81650000
C        1.51680000      -0.02120000       2.29620000
C        0.69880000      -0.69810000       1.20830000
O       -0.06790000      -1.76530000       1.69230000
H        0.92290000       2.05390000       0.37780000
H       -0.03110000       1.87000000      -1.09730000
H       -0.83630000       1.95570000       0.47430000
H       -0.78590000      -0.44400000      -0.32240000
H        1.24050000      -1.68380000      -0.72380000
H        4.03080000       1.11660000       0.47620000
H        1.97820000      -0.80870000       2.90820000
H        0.89690000       0.59480000       2.95480000
H        0.52580000      -2.50040000       1.88690000
