17
Properties=species:S:1:pos:R:3 gdb_127571=T pbc="F F F"
C        0.00860000       1.41860000      -0.03000000
N        0.00590000      -0.02760000       0.02850000
N       -0.02860000      -0.74190000      -1.12360000
C       -0.02210000      -2.00760000      -0.73670000
C        0.01680000      -2.12790000       0.67660000
C        0.03470000      -3.30050000       1.46240000
C        0.05000000      -4.30080000       2.13450000
C        0.03410000      -0.81070000       1.13480000
C        0.07500000      -0.27690000       2.52580000
H        0.91130000       1.82920000       0.43360000
H       -0.01590000       1.69740000      -1.08250000
H       -0.86850000       1.83440000       0.47620000
H       -0.04510000      -2.80220000      -1.46700000
H        0.06330000      -5.18500000       2.72160000
H        0.96890000       0.33230000       2.70450000
H       -0.79740000       0.34780000       2.75060000
H        0.08630000      -1.11060000       3.23030000
