20
Properties=species:S:1:pos:R:3 gdb_78659=T pbc="F F F"
C       -0.01720000       1.69130000      -0.05920000
C        0.12550000       0.17200000       0.02380000
C        1.12500000      -0.65540000      -0.81680000
C        2.56560000      -0.21710000      -0.47050000
O        3.06650000       1.06570000      -0.73620000
C        2.23780000      -0.72270000       0.92140000
N        1.21680000      -1.68800000       0.35570000
C        0.77530000      -0.53330000       1.20940000
C        0.19420000      -0.73030000       2.57690000
H        0.83040000       2.22630000       0.38250000
H       -0.12520000       2.02660000      -1.09560000
H       -0.90570000       2.02300000       0.48830000
H       -0.86040000      -0.28670000      -0.12040000
H        0.86630000      -0.99870000      -1.81690000
H        3.26590000      -0.91220000      -0.94260000
H        2.54170000       1.70830000      -0.25160000
H        2.93000000      -1.03730000       1.69530000
H        0.22270000       0.20100000       3.15390000
H       -0.84810000      -1.06050000       2.51410000
H        0.75460000      -1.48900000       3.13130000
