19
Properties=species:S:1:pos:R:3 gdb_109559=T pbc="F F F"
C       -0.19470000       1.48370000      -0.20200000
C       -0.05660000      -0.02820000      -0.06530000
C        1.16670000      -0.61100000      -0.89340000
O        1.69640000       0.07220000      -1.98600000
C        1.91930000      -0.56410000       0.42900000
O        3.05410000      -0.24420000       0.68590000
C        0.63520000      -0.54550000       1.25340000
C        0.71490000       0.27110000       2.54370000
O        1.69590000      -0.26980000       3.40840000
H        0.74420000       2.00460000       0.01420000
H       -0.47790000       1.74130000      -1.22610000
H       -0.95820000       1.87610000       0.47590000
H       -1.00280000      -0.52350000      -0.28990000
H        0.94010000      -1.64500000      -1.18250000
H        2.47120000       0.55760000      -1.67670000
H        0.30980000      -1.56490000       1.48490000
H        0.92340000       1.32530000       2.31070000
H       -0.23670000       0.23770000       3.08380000
H        2.53680000      -0.21280000       2.93650000
