21
Properties=species:S:1:pos:R:3 gdb_102298=T pbc="F F F"
C       -0.02550000       1.58210000      -0.04030000
C        0.00890000       0.05390000      -0.01630000
O        0.84430000      -0.45910000      -1.05420000
C        0.57630000      -0.48900000       1.29420000
C        0.55620000      -2.02920000       1.38260000
C        1.34630000      -2.52910000       2.61430000
O        1.37120000      -3.93520000       2.71640000
C       -0.80560000      -2.55990000       1.43450000
C       -1.91360000      -3.02000000       1.53560000
H        0.98180000       1.99010000       0.09110000
H       -0.41730000       1.94630000      -0.99680000
H       -0.66970000       1.97550000       0.75300000
H       -1.01610000      -0.33140000      -0.13590000
H        0.45940000      -0.20930000      -1.89970000
H        1.61580000      -0.14970000       1.38360000
H        0.01640000      -0.06350000       2.13400000
H        1.04790000      -2.42560000       0.48700000
H        2.38830000      -2.20700000       2.52050000
H        0.92960000      -2.06190000       3.52160000
H        0.45350000      -4.23350000       2.72140000
H       -2.89680000      -3.41730000       1.59550000
