14
Properties=species:S:1:pos:R:3 gdb_129611=T pbc="F F F"
N       -0.13190000       1.29180000      -0.54640000
C       -0.08930000      -0.02380000      -0.11570000
C       -1.07240000      -0.95230000       0.07440000
C       -2.55260000      -0.98060000      -0.14720000
C       -2.97530000      -0.13300000      -1.26010000
C       -3.31750000       0.57160000      -2.17160000
O       -0.49210000      -2.05420000       0.58960000
N        0.87810000      -1.78420000       0.71070000
N        1.08690000      -0.60640000       0.29560000
H        0.75820000       1.60190000      -0.91250000
H       -0.89110000       1.47740000      -1.18920000
H       -2.85650000      -2.01730000      -0.33560000
H       -3.08070000      -0.67260000       0.76680000
H       -3.64330000       1.17610000      -2.98230000
