16
Properties=species:S:1:pos:R:3 gdb_1103=T pbc="F F F"
C       -0.01430000       1.54410000       0.00530000
C        0.00840000       0.00370000       0.02450000
C        0.73440000      -0.53720000       1.26980000
O       -1.31790000      -0.49340000      -0.01800000
C        0.68140000      -0.54260000      -1.26250000
N        1.99490000      -0.17900000      -1.42070000
O        0.11310000      -1.25710000      -2.05560000
H        0.98710000       1.98580000       0.02300000
H       -0.53790000       1.90170000      -0.88500000
H       -0.54650000       1.91510000       0.88910000
H        0.23540000      -0.17580000       2.17690000
H        0.70550000      -1.62970000       1.27240000
H        1.77950000      -0.21820000       1.31680000
H       -1.75990000      -0.19260000       0.78300000
H        2.42690000       0.54020000      -0.86880000
H        2.43130000      -0.42860000      -2.29340000
