17
Properties=species:S:1:pos:R:3 gdb_49428=T pbc="F F F"
O       -0.28850000       0.23290000       0.41080000
C       -0.02360000       1.39270000       0.22140000
C        1.37060000       1.93260000       0.03730000
C        1.62130000       2.96400000      -1.14200000
C        1.44970000       4.52420000      -0.88090000
C        0.66630000       5.12160000       0.30390000
C        0.83950000       3.98430000       1.30680000
C        1.81090000       3.15140000       0.87250000
C        2.58260000       3.76040000      -0.31120000
H       -0.82300000       2.16360000       0.13410000
H        2.08130000       1.10430000      -0.04590000
H        1.77000000       2.64120000      -2.16940000
H        1.58120000       5.10430000      -1.79260000
H        1.07160000       6.10800000       0.57100000
H       -0.40700000       5.25770000       0.12230000
H       -0.00050000       3.65200000       1.90900000
H        3.65110000       3.89480000      -0.41210000
