18
Properties=species:S:1:pos:R:3 gdb_72973=T pbc="F F F"
C       -0.12730000       1.51410000       0.05710000
C        0.03530000       0.03220000       0.11620000
O       -1.13700000      -0.76950000      -0.04460000
C       -0.65280000      -1.70880000       0.95660000
C        0.66200000      -0.95630000       1.06800000
C        1.25640000      -0.77840000      -0.34300000
C        1.17300000      -1.83250000      -1.43500000
C        2.49010000      -0.03330000      -0.31790000
N        3.48070000       0.56600000      -0.30980000
H        0.83250000       2.01540000       0.19940000
H       -0.52590000       1.80710000      -0.92030000
H       -0.82650000       1.85500000       0.82620000
H       -1.26190000      -1.64310000       1.86380000
H       -0.63580000      -2.74110000       0.59230000
H        1.25740000      -0.80950000       1.95870000
H        0.14050000      -2.16490000      -1.55330000
H        1.50300000      -1.41390000      -2.38960000
H        1.80590000      -2.69470000      -1.20550000
