16
Properties=species:S:1:pos:R:3 gdb_45339=T pbc="F F F"
N        0.07410000       1.22870000       0.19640000
C        0.05030000      -0.03110000       0.19590000
O        1.13140000      -0.83710000       0.43690000
C        0.84910000      -2.20750000       0.11520000
C       -0.67250000      -2.34210000       0.13360000
C       -1.35240000      -2.44010000       1.53580000
C       -2.02600000      -1.08760000       1.25380000
O       -2.92270000      -0.48370000       1.75450000
C       -1.18590000      -0.87920000      -0.03300000
H        1.02000000       1.57380000       0.36730000
H        1.26400000      -2.43200000      -0.87490000
H        1.35360000      -2.83400000       0.85630000
H       -1.04400000      -3.06860000      -0.58780000
H       -2.04120000      -3.27230000       1.69990000
H       -0.65170000      -2.39670000       2.37680000
H       -1.73820000      -0.56100000      -0.91680000
