19
Properties=species:S:1:pos:R:3 gdb_72612=T pbc="F F F"
C       -0.16170000       1.57660000      -0.10950000
C       -0.02770000       0.07680000       0.00130000
C        0.98040000      -0.67700000      -0.89200000
O        1.54510000      -1.39650000       0.22330000
C        0.68780000      -0.72480000       1.17420000
C        1.41790000      -0.15840000       2.35910000
C       -0.61420000      -1.51380000       1.36350000
O       -1.63990000      -0.55270000       1.64500000
C       -1.27150000      -0.77130000       0.27580000
H        0.81320000       2.07080000      -0.03990000
H       -0.60830000       1.86120000      -1.07010000
H       -0.80120000       1.96360000       0.68880000
H        0.56250000      -1.34620000      -1.65460000
H        1.72760000      -0.02520000      -1.36270000
H        2.16750000       0.57500000       2.04680000
H        0.71150000       0.32270000       3.04120000
H        1.93510000      -0.95970000       2.89870000
H       -0.75570000      -2.53090000       1.71080000
H       -2.05800000      -1.07800000      -0.40560000
