13
Properties=species:S:1:pos:R:3 gdb_131641=T pbc="F F F"
O        0.09220000       1.48340000      -0.44030000
C        0.03710000       0.14540000       0.02290000
C       -1.36440000      -0.36650000       0.11850000
C       -2.12510000      -0.76820000       1.18280000
O       -3.34040000      -1.11470000       0.72100000
N       -3.31360000      -0.90530000      -0.67870000
N       -2.16950000      -0.48050000      -0.99030000
C       -1.85050000      -0.86730000       2.55640000
C       -1.59690000      -0.94470000       3.72990000
H       -0.32230000       1.50590000      -1.31010000
H        0.62540000      -0.52630000      -0.62020000
H        0.49320000       0.13730000       1.01620000
H       -1.37680000      -1.01240000       4.76750000
