17
Properties=species:S:1:pos:R:3 gdb_37778=T pbc="F F F"
C       -0.04420000       1.44700000       0.06210000
C        1.36790000       2.05160000       0.03850000
C        2.31010000       1.79410000      -0.87840000
C        2.09680000       1.07040000      -2.17600000
C        1.99580000      -0.43430000      -2.55810000
N        1.61130000      -1.32910000      -1.42240000
C        0.54970000      -0.36060000      -1.15400000
N        0.14280000      -0.01050000      -0.01930000
C        0.77300000       0.42480000      -2.45730000
H       -0.54650000       1.69850000       0.99820000
H       -0.65190000       1.85570000      -0.75920000
H        1.63130000       2.67960000       0.88490000
H        3.29670000       2.23000000      -0.73880000
H        2.51290000       1.61760000      -3.02340000
H        2.52400000      -0.81990000      -3.42080000
H        1.26650000      -2.21440000      -1.79220000
H        0.02940000       0.73940000      -3.17950000
