16
Properties=species:S:1:pos:R:3 gdb_15042=T pbc="F F F"
C        0.12200000       1.23140000      -0.28990000
N        0.00170000      -0.18720000       0.00190000
C        0.40380000      -0.69090000       1.09680000
C        1.08880000       0.01060000       2.24470000
O        1.46940000       1.15420000       2.22010000
N        0.16600000      -2.04340000       1.40680000
C        0.06550000      -3.01400000       0.33880000
C        1.24400000      -3.02940000       1.25690000
H        1.16240000       1.50120000      -0.50800000
H       -0.48070000       1.45190000      -1.17500000
H       -0.20120000       1.87260000       0.53650000
H        1.22210000      -0.63220000       3.14120000
H       -0.71600000      -3.75810000       0.45860000
H        0.20660000      -2.63840000      -0.67020000
H        2.19230000      -2.68170000       0.85380000
H        1.31850000      -3.76770000       2.04950000
