17
Properties=species:S:1:pos:R:3 gdb_94336=T pbc="F F F"
C       -0.31040000       1.42360000       0.09460000
C        0.12410000      -0.01810000      -0.05180000
O        1.37000000      -0.17140000      -0.79380000
C        2.02980000      -0.83570000       0.29790000
C        0.77810000      -0.69290000       1.15570000
N        0.64440000      -0.25470000       2.52590000
C        0.21850000      -1.63040000       2.16800000
C       -1.19760000      -1.90120000       2.22740000
N       -2.33000000      -2.13340000       2.24020000
H        0.46520000       2.01890000       0.58340000
H       -0.51520000       1.85190000      -0.89090000
H       -1.22290000       1.48130000       0.69580000
H       -0.66860000      -0.62290000      -0.51120000
H        2.32650000      -1.86260000       0.04890000
H        2.90970000      -0.28270000       0.65470000
H        1.53300000      -0.28770000       3.02170000
H        0.84480000      -2.46490000       2.47340000
