17
Properties=species:S:1:pos:R:3 gdb_83103=T pbc="F F F"
N       -0.11880000       1.59120000      -0.26730000
C        0.00960000       0.15800000      -0.09000000
C       -1.31430000      -0.67450000      -0.07760000
C       -2.64620000      -0.09670000      -0.60820000
N       -2.80550000      -0.63290000      -1.97770000
C       -1.78060000      -1.33130000      -2.24970000
N       -0.80140000      -1.48530000      -1.23230000
C        0.41520000      -0.70810000      -1.29710000
N        1.40700000      -0.68290000      -2.06840000
H        0.80160000       2.01870000      -0.22970000
H       -0.48450000       1.80360000      -1.19160000
H        0.63220000      -0.02530000       0.79000000
H       -1.44640000      -1.27440000       0.82410000
H       -3.49390000      -0.41130000       0.00670000
H       -2.66540000       0.99830000      -0.63990000
H       -1.61930000      -1.80760000      -3.21160000
H        1.34280000      -1.38460000      -2.80840000
