23
Properties=species:S:1:pos:R:3 gdb_121801=T pbc="F F F"
C       -0.07480000       1.56730000       0.14110000
C        0.04810000       0.04310000       0.06530000
C        0.63270000      -0.44260000      -1.26670000
C        0.73160000      -1.97060000      -1.33540000
C        1.47630000      -2.52360000      -2.57900000
C        0.82250000      -2.08380000      -3.90080000
N        2.86530000      -2.04240000      -2.56190000
C        1.42690000      -4.00790000      -2.50530000
N        1.43080000      -5.16280000      -2.43940000
H        0.90180000       2.04890000       0.02060000
H       -0.73130000       1.95160000      -0.64760000
H       -0.48810000       1.88690000       1.10270000
H        0.67840000      -0.31540000       0.89000000
H       -0.93880000      -0.41320000       0.21950000
H        0.00430000      -0.07090000      -2.08550000
H        1.62740000      -0.00940000      -1.41770000
H        1.25260000      -2.34280000      -0.44360000
H       -0.26930000      -2.41670000      -1.30850000
H        0.91270000      -1.00170000      -4.01080000
H        1.31890000      -2.56020000      -4.75140000
H       -0.23350000      -2.36440000      -3.92570000
H        3.34500000      -2.39590000      -1.73830000
H        3.36890000      -2.40570000      -3.36630000
