22
Properties=species:S:1:pos:R:3 gdb_103424=T pbc="F F F"
C        0.12610000       1.53520000       0.10170000
C        0.00250000       0.01990000      -0.10460000
C       -1.42510000      -0.52690000      -0.01820000
C       -2.35420000       0.04270000      -1.09100000
C       -1.55410000      -2.06070000       0.04480000
N       -0.90160000      -2.51170000       1.29940000
C       -2.30280000      -2.01290000       1.32640000
C       -2.13890000      -0.49070000       1.41750000
O       -1.41790000      -0.02360000       2.52440000
H        1.17680000       1.84120000       0.07550000
H       -0.39600000       2.10000000      -0.67720000
H       -0.28710000       1.82470000       1.07130000
H        0.41620000      -0.25540000      -1.08510000
H        0.61570000      -0.49890000       0.63860000
H       -1.95650000      -0.13860000      -2.09650000
H       -3.34630000      -0.42000000      -1.03910000
H       -2.48590000       1.12220000      -0.97140000
H       -1.67160000      -2.74320000      -0.78950000
H       -0.93510000      -3.52920000       1.32340000
H       -3.10370000      -2.63720000       1.70360000
H       -3.07980000       0.06350000       1.38420000
H       -0.70630000      -0.66640000       2.65350000
