15
Properties=species:S:1:pos:R:3 gdb_64574=T pbc="F F F"
O       -0.09960000       1.46900000       0.09410000
C       -0.07040000       0.08750000       0.01760000
C        0.90830000      -0.48430000       1.01910000
O        1.58320000       0.23820000       1.71180000
C       -1.41660000      -0.66510000       0.01720000
C       -2.21150000      -0.24650000      -1.16350000
C       -1.12260000      -1.29600000      -1.37340000
C        0.19700000      -0.60600000      -1.40050000
O        1.16750000      -0.65190000      -2.09570000
H        0.57120000       1.71340000       0.75380000
H        0.97360000      -1.58770000       1.07850000
H       -1.85120000      -1.16630000       0.87240000
H       -3.21810000      -0.64580000      -1.22520000
H       -2.09410000       0.75050000      -1.57320000
H       -1.34820000      -2.28190000      -1.75750000
