19
Properties=species:S:1:pos:R:3 gdb_77115=T pbc="F F F"
C       -0.59050000       1.13850000      -0.07230000
C       -0.00400000      -0.24410000       0.15710000
C        1.27470000      -0.67500000      -0.65270000
C        1.81260000      -1.37380000       0.63960000
C        0.79100000      -0.55880000       1.42960000
C        1.01000000       0.28370000       2.60610000
O        0.23290000      -0.92470000       2.67160000
C        1.03440000      -1.55540000      -1.84410000
O        1.40100000      -1.32610000      -2.96780000
H        0.17230000       1.91600000       0.03810000
H       -1.01440000       1.22410000      -1.07800000
H       -1.39220000       1.34410000       0.64490000
H       -0.77890000      -1.01300000       0.03700000
H        1.87830000       0.18550000      -0.94830000
H        1.56620000      -2.44120000       0.65440000
H        2.87200000      -1.24800000       0.86940000
H        1.96800000       0.25010000       3.12370000
H        0.44490000       1.20580000       2.73300000
H        0.45580000      -2.48140000      -1.60560000
