21
Properties=species:S:1:pos:R:3 gdb_116229=T pbc="F F F"
O       -0.10540000       1.46980000      -0.13420000
C       -0.00760000       0.06300000      -0.05880000
C       -1.37270000      -0.55330000       0.24570000
O       -2.29760000      -0.08410000      -0.75620000
C       -2.69390000      -1.17690000      -1.58210000
C       -2.67520000      -2.39010000      -0.65260000
C       -1.45760000      -2.08450000       0.21360000
C       -0.23070000      -2.96670000       0.15170000
C       -1.08830000      -2.93480000       1.39420000
H       -0.86770000       1.64060000      -0.70190000
H        0.38390000      -0.36760000      -0.99510000
H        0.70750000      -0.16660000       0.73960000
H       -1.72750000      -0.15160000       1.20390000
H       -3.67950000      -0.94330000      -1.99400000
H       -1.99170000      -1.31290000      -2.41930000
H       -3.58800000      -2.40950000      -0.04590000
H       -2.59670000      -3.34150000      -1.18530000
H       -0.27530000      -3.84810000      -0.47990000
H        0.75210000      -2.51210000       0.20200000
H       -0.68580000      -2.44070000       2.27330000
H       -1.70970000      -3.79640000       1.61660000
