18
Properties=species:S:1:pos:R:3 gdb_9780=T pbc="F F F"
C       -0.40230000       1.57260000      -0.43570000
C       -0.05310000       0.10490000      -0.09720000
C       -1.27070000      -0.63600000       0.22700000
C       -2.28650000      -1.21190000       0.51320000
C        0.76870000      -0.53350000      -1.23320000
C        2.20110000      -0.05020000      -1.33910000
C        0.42170000      -1.85100000      -1.78440000
O        0.07510000      -0.64610000      -2.47970000
H        0.50240000       2.17140000      -0.56980000
H       -0.98670000       1.60850000      -1.35790000
H       -0.99130000       2.01780000       0.36920000
H        0.58710000       0.10000000       0.79620000
H       -3.18080000      -1.72650000       0.76440000
H        2.76780000      -0.31430000      -0.43960000
H        2.68730000      -0.50860000      -2.20320000
H        2.25170000       1.03570000      -1.46280000
H        1.20170000      -2.44940000      -2.25460000
H       -0.41810000      -2.40550000      -1.37480000
