20
Properties=species:S:1:pos:R:3 gdb_83043=T pbc="F F F"
C        0.27360000       1.75120000       0.10990000
C        0.09520000       0.25270000      -0.02520000
C        0.50300000      -0.56590000      -1.20750000
C        1.19840000       0.02230000      -2.42910000
O        0.36190000       0.93990000      -3.14010000
C        2.55120000       0.60560000      -2.13200000
C        3.16240000       0.48230000      -0.95700000
C        2.56510000      -0.23650000       0.22070000
N        1.18940000      -0.71760000       0.08940000
H        1.14480000       2.13580000      -0.42270000
H       -0.62000000       2.26630000      -0.26140000
H        0.38080000       2.02700000       1.16510000
H       -0.79940000      -0.09620000       0.49190000
H       -0.13550000      -1.41330000      -1.45220000
H        1.33690000      -0.79490000      -3.14940000
H        0.21140000       1.69700000      -2.56480000
H        3.02340000       1.12490000      -2.96190000
H        4.15750000       0.89680000      -0.80710000
H        3.19420000      -1.10860000       0.45240000
H        2.62430000       0.40450000       1.11130000
