13
Properties=species:S:1:pos:R:3 gdb_5359=T pbc="F F F"
O       -0.07350000      -0.02380000      -0.00160000
C       -0.00610000       1.18230000       0.00730000
C        1.25500000       1.95640000      -0.00040000
C        2.49760000       1.30840000      -0.01940000
N        3.66390000       1.94920000      -0.02720000
C        3.62510000       3.28790000      -0.01590000
C        2.44830000       4.03370000       0.00330000
C        1.23900000       3.35120000       0.01110000
H       -0.92610000       1.81020000       0.02250000
H        2.52470000       0.22240000      -0.02860000
H        4.58930000       3.79070000      -0.02250000
H        2.48680000       5.11690000       0.01160000
H        0.29230000       3.88480000       0.02590000
