23
Properties=species:S:1:pos:R:3 gdb_89738=T pbc="F F F"
C       -0.57500000       1.35940000      -0.06720000
C        0.16750000       0.03940000      -0.04530000
O        1.45500000       0.12030000      -0.70990000
C        2.09990000      -0.51930000       0.38850000
C        3.10870000      -1.60090000       0.17130000
C        3.52740000      -0.23910000       0.71520000
C        0.83460000      -0.50440000       1.26200000
C        0.90470000       0.47630000       2.43210000
C        0.31960000      -1.86820000       1.71400000
H        0.00870000       2.16120000       0.39140000
H       -0.78530000       1.64430000      -1.10310000
H       -1.53200000       1.27390000       0.45920000
H       -0.45020000      -0.73510000      -0.52360000
H        3.12270000      -2.45220000       0.84470000
H        3.36940000      -1.82960000      -0.85660000
H        4.06260000       0.42500000       0.04450000
H        3.82430000      -0.16650000       1.75670000
H        1.32230000       1.44040000       2.13150000
H       -0.08690000       0.65080000       2.86410000
H        1.54290000       0.07440000       3.22690000
H        0.95620000      -2.29230000       2.49890000
H       -0.69370000      -1.78490000       2.12410000
H        0.29220000      -2.57910000       0.88300000
