23
Properties=species:S:1:pos:R:3 gdb_122208=T pbc="F F F"
C        0.02150000       1.72130000      -0.00380000
C       -0.27360000       0.22830000      -0.16600000
C        0.53070000      -0.48980000      -1.24190000
C        0.24230000      -1.97470000      -1.40650000
C        0.65450000      -2.82190000      -0.19400000
C        0.51310000      -4.32230000      -0.45320000
O        0.83530000      -5.11150000       0.68050000
C        1.10740000       0.24010000      -2.38240000
O        1.93250000      -0.16830000      -1.28600000
H        1.09650000       1.89120000       0.10230000
H       -0.33510000       2.30420000      -0.85870000
H       -0.47580000       2.11280000       0.88810000
H       -0.08170000      -0.27770000       0.78800000
H       -1.33950000       0.07380000      -0.37840000
H       -0.82770000      -2.11140000      -1.61280000
H        0.78170000      -2.33340000      -2.29100000
H        1.69990000      -2.59350000       0.05360000
H        0.05430000      -2.56990000       0.68710000
H       -0.52790000      -4.56630000      -0.69460000
H        1.12060000      -4.60980000      -1.32740000
H        1.75660000      -4.94140000       0.90180000
H        1.28270000      -0.28710000      -3.31990000
H        0.96830000       1.31420000      -2.48170000
