14
Properties=species:S:1:pos:R:3 gdb_8131=T pbc="F F F"
C       -0.00830000       1.50660000      -0.04670000
C        0.04320000       0.01180000       0.04690000
C       -0.83910000      -0.83630000       0.93510000
C        0.66090000      -0.83380000       1.11630000
O        1.36860000      -1.85590000       0.44900000
C        1.20960000      -1.71000000      -0.89940000
O        1.66920000      -2.43590000      -1.71920000
O        0.43030000      -0.62340000      -1.16520000
H        0.94770000       1.90570000      -0.39780000
H       -0.79230000       1.82330000      -0.74120000
H       -0.22800000       1.93750000       0.93380000
H       -1.41870000      -0.31340000       1.68810000
H       -1.30510000      -1.72210000       0.51700000
H        1.15850000      -0.47930000       2.00950000
