13
Properties=species:S:1:pos:R:3 gdb_4562=T pbc="F F F"
C       -0.02280000       1.45380000       0.00990000
N       -0.04210000       0.00900000       0.00050000
C       -1.18890000      -0.82040000       0.00350000
C       -0.72270000      -2.07370000      -0.00700000
O       -1.34290000      -3.25900000      -0.00970000
O        0.64480000      -2.08550000      -0.01630000
C        1.08920000      -0.75340000      -0.01190000
O        2.25030000      -0.44140000      -0.01740000
H        1.02240000       1.76570000       0.00290000
H       -0.52630000       1.85980000      -0.87420000
H       -0.51070000       1.84820000       0.90800000
H       -2.19120000      -0.43520000       0.01260000
H       -0.66780000      -3.94830000      -0.01830000
