16
Properties=species:S:1:pos:R:3 gdb_131345=T pbc="F F F"
O        0.78610000       1.01020000      -0.27510000
C        0.22690000      -0.19740000      -0.11860000
N       -0.94440000      -0.48590000      -0.65150000
N       -1.09600000      -1.78300000      -0.23800000
C       -0.04320000      -2.18780000       0.49560000
N        0.82810000      -1.18940000       0.59190000
C        0.08900000      -3.52720000       1.08120000
C        1.46680000      -4.15710000       1.17690000
C        0.78470000      -3.68020000       2.42160000
H        1.62700000       0.98450000       0.19640000
H       -1.92440000      -2.29160000      -0.49680000
H       -0.74440000      -4.19210000       0.87920000
H        1.54020000      -5.22340000       0.99640000
H        2.28940000      -3.56410000       0.79540000
H        1.14920000      -2.76680000       2.87620000
H        0.38160000      -4.41340000       3.11080000
