16
Properties=species:S:1:pos:R:3 gdb_33320=T pbc="F F F"
C       -0.01110000      -3.80520000      -0.07320000
C        0.00680000      -2.59810000      -0.03060000
C        0.02700000      -1.23970000       0.01730000
C        0.04220000      -0.02840000       0.06490000
C        0.03650000       1.40060000       0.09590000
C        0.51330000       2.20140000       1.25940000
C        1.64770000       1.51110000       2.00900000
C        2.38590000       1.47850000       0.64450000
N        1.27230000       2.23250000      -0.04480000
H       -0.02870000      -4.86610000      -0.11110000
H       -0.77780000       1.85540000      -0.46370000
H       -0.06210000       3.05330000       1.60980000
H        2.13200000       2.16230000       2.73810000
H        1.40560000       0.55700000       2.48320000
H        3.29150000       2.08620000       0.61770000
H        2.59080000       0.49880000       0.20670000
