20
Properties=species:S:1:pos:R:3 gdb_96105=T pbc="F F F"
O       -0.08460000       1.43160000       0.06730000
C        0.01290000       0.01630000       0.00970000
C        0.76050000      -0.53770000       1.23300000
O        0.78850000      -1.95440000       1.23350000
C       -0.51680000      -2.50790000       1.28970000
C       -1.36310000      -2.05960000       0.11280000
C       -1.44600000      -2.94090000      -1.07920000
N       -2.60990000      -2.77750000      -0.18290000
C       -1.40720000      -0.54910000      -0.02030000
H        0.79950000       1.79920000      -0.03170000
H        0.54830000      -0.30670000      -0.89710000
H        1.80540000      -0.20920000       1.23590000
H        0.27580000      -0.14960000       2.14510000
H       -0.39410000      -3.59580000       1.29640000
H       -1.01010000      -2.21080000       2.23260000
H       -1.57280000      -2.50720000      -2.06750000
H       -0.90060000      -3.88110000      -1.06440000
H       -2.69770000      -3.59360000       0.42010000
H       -1.96500000      -0.12060000       0.82300000
H       -1.92540000      -0.25110000      -0.93550000
