17
Properties=species:S:1:pos:R:3 gdb_32923=T pbc="F F F"
C        0.14560000       1.40160000      -0.09610000
C       -0.10730000      -0.03970000       0.32930000
N       -1.35640000      -0.54000000      -0.26750000
C       -1.67280000      -1.87120000      -0.07430000
C       -2.71330000      -2.56990000       0.43650000
N       -2.50830000      -3.94330000       0.22130000
C       -1.36610000      -3.97920000      -0.36990000
O       -0.66110000      -5.03800000      -0.77200000
O       -0.77850000      -2.79160000      -0.60720000
H        1.08580000       1.76630000       0.32710000
H        0.19750000       1.47980000      -1.18560000
H       -0.65390000       2.06480000       0.25430000
H        0.70150000      -0.68500000      -0.02500000
H       -0.12370000      -0.11790000       1.42850000
H       -2.14720000       0.04920000      -0.03950000
H       -3.59490000      -2.19910000       0.93340000
H       -1.17460000      -5.81680000      -0.52260000
