20
Properties=species:S:1:pos:R:3 gdb_37245=T pbc="F F F"
C        0.08210000       1.55300000      -0.00650000
C        1.33600000       0.71620000      -0.01080000
C       -0.01310000       0.05250000       0.01980000
C       -0.54650000      -0.86970000       1.14110000
C       -1.09880000      -1.82120000       0.03650000
C       -2.49520000      -1.53480000      -0.53950000
C       -2.82110000      -0.10070000      -0.63010000
N       -1.93920000      -0.66920000      -1.66870000
C       -0.55270000      -0.88520000      -1.06680000
H       -0.16760000       2.09220000       0.90220000
H       -0.19970000       2.06350000      -0.92160000
H        1.91080000       0.65670000      -0.92980000
H        1.93370000       0.68630000       0.89500000
H        0.24410000      -1.32280000       1.74630000
H       -1.29560000      -0.43830000       1.81240000
H       -0.82740000      -2.87410000       0.08800000
H       -3.23590000      -2.30330000      -0.74070000
H       -3.79950000       0.15560000      -1.02690000
H       -2.43020000       0.61600000       0.08360000
H        0.13840000      -1.20870000      -1.84610000
