17
Properties=species:S:1:pos:R:3 gdb_123422=T pbc="F F F"
C       -0.11250000       1.61720000      -0.06700000
C       -0.25760000       0.13260000      -0.30930000
C       -0.04530000      -0.83170000       0.82870000
C       -1.43370000      -0.59660000       0.29280000
N        1.28100000       2.05450000      -0.03320000
C        2.10030000       2.46970000      -1.01480000
N        3.29430000       2.70200000      -0.51400000
N        3.19170000       2.41510000       0.81070000
N        1.99710000       2.02560000       1.11120000
H       -0.61850000       2.19960000      -0.84320000
H       -0.54550000       1.89410000       0.89730000
H        0.06680000      -0.19310000      -1.29360000
H        0.44030000      -1.77510000       0.60880000
H        0.20970000      -0.41490000       1.79660000
H       -2.12570000      -0.02680000       0.90420000
H       -1.90360000      -1.37540000      -0.29660000
H        1.80060000       2.59330000      -2.04280000
