23
Properties=species:S:1:pos:R:3 gdb_115374=T pbc="F F F"
C       -0.27140000       1.53900000       0.03150000
C        0.03170000       0.03520000       0.01100000
C        0.76060000      -0.43240000      -1.26140000
C        2.24420000      -0.03780000      -1.25200000
C        2.90730000      -0.50600000       0.05100000
C        4.36380000      -0.06750000       0.13780000
O        4.92980000      -0.62400000       1.31670000
C        2.09240000       0.00650000       1.24550000
O        0.73220000      -0.39070000       1.18010000
H        0.62230000       2.15430000      -0.10620000
H       -0.97250000       1.79120000      -0.77080000
H       -0.72810000       1.81230000       0.98680000
H       -0.92520000      -0.49520000       0.07560000
H        0.68550000      -1.52490000      -1.31660000
H        0.25540000      -0.03060000      -2.14700000
H        2.75390000      -0.46960000      -2.12130000
H        2.34850000       1.05230000      -1.34340000
H        2.88680000      -1.60380000       0.08220000
H        4.90300000      -0.40710000      -0.76150000
H        4.41920000       1.03450000       0.15380000
H        5.83470000      -0.30940000       1.39630000
H        2.48100000      -0.40400000       2.17930000
H        2.18300000       1.10490000       1.30340000
