18
Properties=species:S:1:pos:R:3 gdb_54954=T pbc="F F F"
C       -0.29420000       1.55860000       0.10790000
C       -0.01950000       0.06500000       0.00720000
C        1.36140000      -0.41750000      -0.36920000
C        0.88930000      -0.64660000       1.04100000
C        1.52610000       0.14110000       2.14620000
N        1.34760000      -0.39030000       3.39230000
O        2.16870000       1.16120000       1.96260000
C       -1.13630000      -0.72360000      -0.44770000
C       -2.08130000      -1.36560000      -0.82550000
H        0.57710000       2.08420000       0.49940000
H       -0.53860000       1.95550000      -0.88210000
H       -1.14720000       1.75080000       0.76600000
H        1.44900000      -1.27610000      -1.02350000
H        2.12120000       0.34840000      -0.47930000
H        0.56970000      -1.65050000       1.29790000
H        0.70600000      -1.14490000       3.56150000
H        1.68070000       0.14230000       4.17950000
H       -2.91270000      -1.93090000      -1.16640000
