16
Properties=species:S:1:pos:R:3 gdb_67238=T pbc="F F F"
O       -0.36800000       1.49330000      -0.11000000
C       -0.03260000       0.17490000      -0.03340000
C       -0.90730000      -1.04410000       0.00740000
C       -0.17950000      -1.68590000      -1.17400000
C        1.01940000      -0.76150000      -0.80620000
N        1.45370000      -1.25230000       0.52210000
C        2.15810000      -2.39510000       0.77130000
O        2.87980000      -2.94810000      -0.03040000
C        0.20040000      -0.78620000       1.09430000
H        0.34020000       2.01830000       0.28230000
H       -1.94950000      -1.10800000       0.29220000
H        0.02110000      -2.76090000      -1.16540000
H       -0.63470000      -1.39000000      -2.12190000
H        1.79450000      -0.48800000      -1.51580000
H        2.04880000      -2.72470000       1.82530000
H       -0.00340000      -0.71660000       2.15390000
