19
Properties=species:S:1:pos:R:3 gdb_65290=T pbc="F F F"
C       -0.10910000       1.53230000       0.11180000
C       -0.06000000       0.01940000       0.10760000
O        1.21170000      -0.55570000      -0.28630000
C        0.80230000      -0.72660000       1.05380000
C        1.54210000      -0.20390000       2.29010000
C        0.94520000      -1.41060000       3.07650000
C        0.52950000      -2.07160000       1.72730000
C       -1.22590000      -0.64120000      -0.43160000
C       -2.21840000      -1.16520000      -0.86320000
H        0.80850000       1.93980000       0.54070000
H       -0.21350000       1.90930000      -0.90980000
H       -0.96560000       1.88740000       0.69320000
H        2.62580000      -0.27990000       2.16120000
H        1.30010000       0.80170000       2.64220000
H        1.64060000      -1.97320000       3.70100000
H        0.08280000      -1.12470000       3.68260000
H       -0.48330000      -2.47050000       1.63960000
H        1.24100000      -2.83230000       1.39330000
H       -3.08690000      -1.63500000      -1.25430000
