21
Properties=species:S:1:pos:R:3 gdb_85852=T pbc="F F F"
C       -0.87750000       1.33030000       0.05910000
C       -0.03710000       0.06600000      -0.03500000
O       -0.82180000      -1.02140000      -0.50550000
C        1.32990000       0.11630000      -0.78710000
C        1.88380000      -0.88150000       0.26250000
O        3.22770000      -0.82660000       0.67310000
C        0.73830000      -0.44570000       1.23130000
C        1.17510000       0.66290000       2.18990000
O        0.04800000      -1.45530000       1.92900000
H       -0.30670000       2.18210000       0.43800000
H       -1.25740000       1.60590000      -0.93270000
H       -1.73730000       1.16270000       0.71480000
H       -1.15370000      -0.77580000      -1.37600000
H        1.31980000      -0.20130000      -1.83210000
H        1.81100000       1.09800000      -0.71550000
H        1.69920000      -1.91060000      -0.05120000
H        3.45440000       0.09190000       0.85110000
H        1.64320000       1.51240000       1.68160000
H        0.31570000       1.03620000       2.75270000
H        1.90730000       0.26300000       2.90120000
H        0.62540000      -1.77250000       2.63210000
