23
Properties=species:S:1:pos:R:3 gdb_121565=T pbc="F F F"
C       -0.08280000       1.48440000      -0.55350000
C       -0.05680000       0.06040000       0.00800000
C       -1.43640000      -0.60420000       0.01530000
C       -1.40280000      -2.03780000       0.58190000
C       -2.70740000      -2.68890000       0.59290000
C       -3.79450000      -3.20610000       0.58260000
C       -5.10950000      -3.83080000       0.60270000
O       -5.34740000      -4.51620000      -0.61350000
C       -6.61170000      -5.13480000      -0.63080000
H        0.91480000       1.93440000      -0.54700000
H       -0.44700000       1.49560000      -1.58670000
H       -0.74350000       2.13000000       0.03570000
H        0.63840000      -0.55350000      -0.58020000
H        0.34420000       0.07600000       1.03040000
H       -2.13710000      -0.00340000       0.60760000
H       -1.84240000      -0.63420000      -1.00300000
H       -0.70060000      -2.64500000      -0.00530000
H       -0.99720000      -2.01680000       1.60260000
H       -5.18020000      -4.53090000       1.45420000
H       -5.88780000      -3.06410000       0.76580000
H       -6.71450000      -5.88280000       0.17210000
H       -7.42890000      -4.40330000      -0.52180000
H       -6.71360000      -5.63650000      -1.59570000
