16
Properties=species:S:1:pos:R:3 gdb_60753=T pbc="F F F"
C        0.08570000       1.44710000      -0.03750000
N        0.00340000      -0.01090000      -0.01070000
C       -0.11990000      -0.62870000       1.23680000
O       -0.14770000      -0.01960000       2.27930000
C        0.07000000      -0.79750000      -1.17190000
N        0.23750000      -2.05230000      -1.09230000
C       -0.09740000       0.00410000      -2.47120000
C       -0.05990000      -0.84700000      -3.65360000
N       -0.02800000      -1.53590000      -4.58000000
H        1.02590000       1.78730000      -0.48230000
H       -0.75270000       1.89450000      -0.57980000
H        0.04750000       1.77660000       1.00010000
H       -0.19510000      -1.71850000       1.14670000
H        0.22010000      -2.49660000      -2.00800000
H       -1.04830000       0.54910000      -2.45480000
H        0.68960000       0.76140000      -2.55690000
