17
Properties=species:S:1:pos:R:3 gdb_52275=T pbc="F F F"
N       -0.36350000       1.14670000       0.10540000
C       -0.56540000      -0.06160000       0.40320000
O       -0.52750000      -0.99550000      -0.58050000
C       -0.74710000      -2.34710000      -0.20790000
C       -2.23300000      -2.69430000      -0.09850000
C       -2.61030000      -4.18380000       0.06570000
O       -3.27030000      -3.88410000       1.33480000
C       -2.90640000      -2.55740000       1.25810000
N       -3.06630000      -1.61930000       2.07440000
H       -0.42420000       1.71960000       0.94480000
H       -0.78790000      -0.47040000       1.39410000
H       -0.29730000      -2.94180000      -1.00850000
H       -0.22290000      -2.58840000       0.72620000
H       -2.77790000      -2.18830000      -0.89880000
H       -3.31490000      -4.59450000      -0.66000000
H       -1.77480000      -4.87330000       0.21790000
H       -3.55900000      -1.92890000       2.91380000
