17
Properties=species:S:1:pos:R:3 gdb_126270=T pbc="F F F"
C        0.13520000       1.60780000      -0.20230000
C       -0.02470000       0.11410000       0.12490000
C       -1.44790000      -0.33850000       0.15910000
C       -2.22930000      -0.75920000       1.21160000
O       -1.88530000      -0.87740000       2.48580000
C       -2.89230000      -1.35200000       3.39140000
O       -3.44540000      -1.06010000       0.80860000
N       -3.42200000      -0.79440000      -0.67580000
N       -2.26830000      -0.39740000      -0.93330000
H        1.19290000       1.88570000      -0.23950000
H       -0.31370000       1.84000000      -1.17230000
H       -0.35570000       2.23000000       0.55250000
H        0.52680000      -0.48070000      -0.61290000
H        0.42310000      -0.10640000       1.09960000
H       -3.22700000      -2.35320000       3.10660000
H       -2.41440000      -1.37770000       4.37020000
H       -3.74940000      -0.67320000       3.40580000
