20
Properties=species:S:1:pos:R:3 gdb_111116=T pbc="F F F"
C        0.04600000       1.54820000      -0.11050000
C       -0.01340000       0.03840000       0.14690000
C       -1.43690000      -0.50660000       0.12200000
C       -2.04320000      -0.73970000      -1.28930000
O       -1.24300000      -1.97400000      -1.37810000
C       -1.55130000      -2.05240000       0.06180000
C       -3.07150000      -2.33420000       0.00590000
N       -3.93080000      -1.18240000       0.37350000
C       -3.44590000      -1.33530000      -1.02010000
H        1.07600000       1.91540000      -0.06640000
H       -0.35230000       1.80160000      -1.09910000
H       -0.53840000       2.10230000       0.63240000
H        0.59490000      -0.49510000      -0.58990000
H        0.42250000      -0.17700000       1.13150000
H       -2.07520000       0.00060000       0.84540000
H       -1.90830000      -0.06660000      -2.13560000
H       -0.90370000      -2.73300000       0.61460000
H       -3.45930000      -3.34490000       0.03830000
H       -4.89710000      -1.50410000       0.41260000
H       -4.14130000      -1.52720000      -1.82790000
