16
Properties=species:S:1:pos:R:3 gdb_98580=T pbc="F F F"
O        0.15240000       1.35950000      -0.05660000
C        0.08490000      -0.03550000      -0.03900000
C       -1.35150000      -0.50440000       0.10470000
O       -2.25900000       0.29280000       0.18750000
C       -1.59250000      -1.98300000       0.13910000
N       -0.66170000      -2.84680000       0.05380000
C       -1.31850000      -4.16130000       0.12730000
C       -2.82880000      -3.83510000       0.27480000
O       -2.87380000      -2.38630000       0.26790000
H       -0.76280000       1.66800000       0.03100000
H        0.50080000      -0.47600000      -0.95810000
H        0.67120000      -0.46230000       0.78910000
H       -1.09270000      -4.73510000      -0.77720000
H       -0.91890000      -4.72430000       0.97680000
H       -3.43970000      -4.19670000      -0.55580000
H       -3.26340000      -4.18270000       1.21530000
