13
Properties=species:S:1:pos:R:3 gdb_20430=T pbc="F F F"
C       -0.19370000       1.29140000      -0.31620000
C        1.23460000       1.04060000       0.04030000
N        0.24520000      -0.02340000       0.14510000
C       -0.14170000      -0.48560000       1.38480000
N        0.70250000      -0.70920000       2.36690000
O       -0.12090000      -1.26000000       3.36740000
C       -1.35200000      -1.28170000       2.86220000
N       -1.45350000      -0.82590000       1.65650000
H       -0.78750000       1.89030000       0.36860000
H       -0.50180000       1.33200000      -1.35580000
H        1.97540000       0.90320000      -0.74060000
H        1.60780000       1.46420000       0.96810000
H       -2.13670000      -1.67170000       3.49450000
