15
Properties=species:S:1:pos:R:3 gdb_12210=T pbc="F F F"
O        0.05770000       1.33340000      -0.29020000
C        0.06470000      -0.06790000      -0.06800000
C        0.25250000      -0.49510000       1.40650000
C       -1.30550000      -0.54090000       1.57970000
C       -1.84050000       0.70090000       2.10750000
N       -2.22210000       1.72410000       2.49130000
C       -1.39160000      -0.61940000      -0.00840000
O       -2.36220000       0.08850000      -0.69070000
H       -0.17100000       1.79290000       0.52690000
H        0.73310000      -0.49730000      -0.81670000
H        0.68620000      -1.49320000       1.49320000
H        0.80420000       0.19120000       2.05150000
H       -1.71970000      -1.38910000       2.12750000
H       -1.44650000      -1.67350000      -0.29640000
H       -2.00790000       0.98310000      -0.80840000
