20
Properties=species:S:1:pos:R:3 gdb_95568=T pbc="F F F"
C       -0.07810000       1.49430000      -0.00300000
N        0.05870000       0.04430000       0.07310000
C       -1.24340000      -0.62910000       0.03590000
C       -1.29800000      -2.14640000       0.23330000
C       -0.54720000      -2.90350000      -0.83110000
C        0.77730000      -2.81210000      -0.90000000
C        1.55460000      -1.98830000       0.09500000
C        1.33580000      -0.46990000       0.03780000
O        2.31490000       0.25900000       0.00050000
H        0.91370000       1.93900000       0.01640000
H       -0.59240000       1.78660000      -0.92830000
H       -0.66790000       1.86510000       0.84440000
H       -1.86640000      -0.16000000       0.81070000
H       -1.72110000      -0.38910000      -0.92720000
H       -0.91300000      -2.40170000       1.23000000
H       -2.35710000      -2.42130000       0.23400000
H       -1.10870000      -3.49810000      -1.54530000
H        1.33710000      -3.32920000      -1.67330000
H        1.32040000      -2.31920000       1.11700000
H        2.62900000      -2.11060000      -0.03800000
