19
Properties=species:S:1:pos:R:3 gdb_79003=T pbc="F F F"
C       -0.20250000       1.62320000      -0.11980000
C       -0.03930000       0.11610000      -0.00370000
C        1.18300000      -0.59000000      -0.69960000
C        2.15920000      -0.18160000       0.44540000
C        2.54540000      -1.59880000       0.96700000
C        2.24140000      -1.52860000       2.48350000
C        1.11110000      -0.81480000       2.60830000
C        0.79440000      -0.48920000       1.15800000
C        1.14000000      -1.76580000       0.31600000
H        0.74410000       2.14720000       0.04700000
H       -0.56680000       1.89900000      -1.11550000
H       -0.92620000       1.99940000       0.61160000
H       -0.99510000      -0.39540000      -0.17550000
H        1.39540000      -0.64210000      -1.76800000
H        2.73040000       0.74390000       0.54480000
H        3.43300000      -2.14280000       0.63940000
H        2.83820000      -1.97520000       3.26730000
H        0.56750000      -0.53990000       3.50030000
H        0.51530000      -2.66140000       0.26670000
