21
Properties=species:S:1:pos:R:3 gdb_109674=T pbc="F F F"
C        0.01910000       1.26000000       0.26010000
C       -0.22180000      -0.18970000      -0.18000000
C        0.66640000      -0.59810000      -1.33560000
O        0.40530000       0.03180000      -2.56570000
C        2.11930000      -0.97990000      -1.07930000
O        2.60640000      -1.04180000       0.22660000
C        1.13140000      -2.03100000      -1.51830000
O        0.87230000      -2.98890000      -0.54130000
C       -0.35960000      -3.66910000      -0.71470000
H        1.04690000       1.38790000       0.61210000
H       -0.15500000       1.96060000      -0.56440000
H       -0.65770000       1.54200000       1.07210000
H       -0.04270000      -0.86260000       0.66250000
H       -1.26740000      -0.31910000      -0.48500000
H        0.76800000       0.92390000      -2.52450000
H        2.85720000      -0.64290000      -1.80420000
H        2.35210000      -1.90610000       0.57520000
H        1.17390000      -2.40440000      -2.54160000
H       -0.43800000      -4.40010000       0.09310000
H       -1.21170000      -2.97960000      -0.66590000
H       -0.38690000      -4.19520000      -1.67910000
