22
Properties=species:S:1:pos:R:3 gdb_113956=T pbc="F F F"
O       -0.03210000       1.39430000      -0.58690000
C        0.00190000       0.17250000       0.13810000
C       -1.32650000      -0.54700000       0.09240000
C       -1.65860000      -1.46240000      -1.06830000
C       -1.48390000      -2.03260000       0.31870000
C       -0.32940000      -2.94830000       0.66620000
N       -0.72030000      -4.34540000       0.49380000
C       -0.46600000      -4.93840000      -0.81410000
C        0.36550000      -5.30900000       0.36470000
H       -0.35690000       1.18850000      -1.47010000
H        0.80820000      -0.48140000      -0.22860000
H        0.25540000       0.45200000       1.16680000
H       -2.14460000       0.06740000       0.45970000
H       -2.65130000      -1.42840000      -1.50310000
H       -0.86620000      -1.65760000      -1.78640000
H       -2.40040000      -2.32360000       0.82440000
H        0.56370000      -2.69720000       0.06660000
H       -0.05350000      -2.81640000       1.72030000
H       -1.23110000      -5.61270000      -1.18790000
H        0.00390000      -4.31710000      -1.57500000
H        1.38790000      -4.93380000       0.38730000
H        0.21920000      -6.25900000       0.87100000
