16
Properties=species:S:1:pos:R:3 gdb_78435=T pbc="F F F"
O       -0.03920000       1.30910000      -0.06140000
C       -0.01730000      -0.08820000      -0.00550000
C       -0.48020000      -0.68730000       1.30210000
C       -1.38190000      -0.68250000       0.03440000
C       -1.32610000      -2.22310000      -0.00520000
N       -0.49680000      -2.86430000      -1.03360000
C        0.59470000      -3.15030000      -0.44930000
O        0.78260000      -2.85730000       0.86850000
C       -0.45010000      -2.21080000       1.27810000
H        0.75590000       1.63450000       0.37340000
H        0.77670000      -0.55560000      -0.58550000
H       -0.55320000      -0.06810000       2.18770000
H       -2.25140000      -0.07220000      -0.17250000
H       -2.30720000      -2.69620000       0.06300000
H        1.44630000      -3.63400000      -0.91670000
H       -0.81730000      -2.70510000       2.17760000
