16
Properties=species:S:1:pos:R:3 gdb_42284=T pbc="F F F"
O        0.21360000      -0.08230000       0.54330000
C       -0.00040000       1.04920000       0.19220000
C        1.13050000       1.89490000      -0.26590000
N        2.00970000       2.56300000      -0.60930000
C       -1.34880000       1.74420000       0.16200000
C       -1.73820000       2.10350000      -1.31550000
C       -2.83600000       1.11650000      -1.62600000
C       -3.23580000       0.44090000      -0.55210000
C       -2.48220000       0.83230000       0.69490000
H       -1.23080000       2.66050000       0.75030000
H       -2.09180000       3.13930000      -1.38570000
H       -0.88880000       2.02970000      -2.00530000
H       -3.24530000       1.01380000      -2.62430000
H       -4.02480000      -0.30210000      -0.53780000
H       -2.07380000      -0.03070000       1.22920000
H       -3.12640000       1.37200000       1.40000000
