19
Properties=species:S:1:pos:R:3 gdb_38948=T pbc="F F F"
C       -0.07120000       1.59750000       0.06470000
C        1.46420000       1.40470000       0.00650000
O        1.73420000       0.77550000       1.26980000
C        0.78120000      -0.31220000       1.25430000
C        1.54330000      -1.63200000       1.09780000
O        2.55580000      -1.53280000       0.11890000
C        2.13930000      -0.96960000      -1.11200000
C        1.19760000       0.21800000      -0.97410000
C       -0.02220000       0.04660000      -0.01200000
H       -0.46400000       2.06320000       0.97150000
H       -0.50110000       2.04730000      -0.83240000
H        2.18390000       2.20200000      -0.17250000
H        0.18780000      -0.30540000       2.17540000
H        2.05700000      -1.89310000       2.02760000
H        0.82490000      -2.43910000       0.86580000
H        3.05950000      -0.68650000      -1.63490000
H        1.63180000      -1.73280000      -1.73000000
H        0.89180000       0.57720000      -1.96020000
H       -0.88470000      -0.57460000      -0.25200000
