15
Properties=species:S:1:pos:R:3 gdb_25823=T pbc="F F F"
N       -0.19680000       1.34350000       0.06560000
C        0.02440000      -0.01140000       0.03700000
O        1.14130000      -0.50340000       0.05230000
C       -1.17990000      -0.84270000       0.01610000
C       -1.34470000      -2.19390000       0.00370000
C       -2.74570000      -2.45210000      -0.01520000
C       -3.34820000      -1.22060000      -0.01620000
N       -4.66300000      -0.81080000      -0.10480000
O       -2.42920000      -0.23420000       0.00110000
H        0.60680000       1.93120000      -0.08380000
H       -1.10590000       1.71370000      -0.15330000
H       -0.53930000      -2.91080000       0.01230000
H       -3.24280000      -3.40850000      -0.02510000
H       -5.32620000      -1.51540000       0.18360000
H       -4.84320000       0.07770000       0.34320000
