15
Properties=species:S:1:pos:R:3 gdb_23256=T pbc="F F F"
O       -0.05360000       1.29280000       0.23210000
N        0.00500000      -0.08190000       0.15160000
C       -1.14190000      -0.64160000       0.04120000
C       -1.27470000      -2.10800000      -0.11310000
C       -2.17700000      -2.80000000       0.85630000
N       -2.68310000      -2.44310000      -0.46690000
C       -3.45280000      -1.19040000      -0.46980000
C       -2.52590000      -0.03940000      -0.04620000
O       -2.85160000       1.10340000       0.14190000
H        0.87810000       1.53580000       0.28960000
H       -0.48860000      -2.65760000      -0.61890000
H       -2.04910000      -3.86460000       1.02830000
H       -2.52640000      -2.23630000       1.72040000
H       -3.81010000      -0.98660000      -1.48660000
H       -4.33010000      -1.25130000       0.18070000
