21
Properties=species:S:1:pos:R:3 gdb_122891=T pbc="F F F"
C       -0.00350000       1.52310000      -0.13610000
C       -0.03520000      -0.01300000       0.02850000
N        0.74950000      -0.56600000       1.12920000
C        2.19760000      -0.43870000       0.98850000
C        2.90540000      -1.13490000       2.15000000
C        4.42340000      -1.07210000       2.03900000
O        4.96470000      -1.70960000       3.18430000
C       -1.43130000      -0.46460000       0.17310000
N       -2.53470000      -0.78590000       0.29080000
H        1.02180000       1.86260000      -0.30120000
H       -0.61100000       1.83600000      -0.98990000
H       -0.39560000       2.01240000       0.76050000
H        0.34880000      -0.46820000      -0.89430000
H        0.44080000      -0.16450000       2.00940000
H        2.48010000      -0.91820000       0.04130000
H        2.54460000       0.60830000       0.92370000
H        2.61160000      -0.66930000       3.09950000
H        2.58670000      -2.18080000       2.19780000
H        4.75000000      -1.57070000       1.11140000
H        4.75160000      -0.02120000       1.97470000
H        5.92370000      -1.68720000       3.11770000
