21
Properties=species:S:1:pos:R:3 gdb_106102=T pbc="F F F"
C        0.06590000       1.58680000      -0.44980000
C        0.11920000       0.08660000      -0.18850000
C        1.06310000      -0.82700000      -0.97260000
C        2.41070000      -0.87750000      -0.21780000
C        2.28280000      -0.00040000       1.02510000
C        0.81020000      -0.49050000       1.08890000
C        1.24960000      -1.73940000       0.21130000
C        1.09900000      -3.21250000       0.37430000
O        1.70760000      -3.83440000      -0.75080000
H        1.06090000       2.04020000      -0.45710000
H       -0.39240000       1.79000000      -1.42430000
H       -0.53500000       2.09970000       0.31040000
H       -0.89350000      -0.33140000      -0.24360000
H        1.00980000      -1.11720000      -2.01420000
H        3.30920000      -1.20370000      -0.72490000
H        2.86740000      -0.41120000       1.85370000
H        2.46860000       1.07700000       0.95550000
H        0.27490000      -0.52350000       2.03710000
H        1.57480000      -3.54080000       1.31440000
H        0.03050000      -3.47920000       0.44550000
H        1.61970000      -4.78640000      -0.64770000
