19
Properties=species:S:1:pos:R:3 gdb_92100=T pbc="F F F"
O        0.42020000       1.16940000       0.61100000
C        0.06870000      -0.08660000       0.02650000
C       -1.44770000      -0.31890000       0.10620000
C       -1.81040000      -1.73660000      -0.27690000
O       -2.97850000      -1.94690000      -1.07910000
C       -1.69260000      -2.17400000      -1.67050000
C       -1.23530000      -1.20330000      -2.74970000
C        0.13880000      -0.61240000      -2.50790000
C        0.66690000      -0.17880000      -1.36040000
H        0.08320000       1.85920000       0.02800000
H        0.57120000      -0.82120000       0.67220000
H       -1.77450000      -0.09620000       1.12670000
H       -1.96550000       0.37940000      -0.55970000
H       -1.67300000      -2.48380000       0.50600000
H       -1.47340000      -3.22490000      -1.86010000
H       -1.24020000      -1.71090000      -3.71950000
H       -1.98600000      -0.40790000      -2.82840000
H        0.76610000      -0.53590000      -3.39380000
H        1.68510000       0.20630000      -1.38600000
