25
Properties=species:S:1:pos:R:3 gdb_76915=T pbc="F F F"
C       -0.09370000       1.55960000       0.19230000
C        0.07340000       0.06350000       0.02650000
C        0.61310000      -0.57550000      -1.24290000
C        1.03530000       0.21650000      -2.44160000
C        1.57620000      -0.49590000      -3.65930000
C        0.21460000       0.15160000      -3.70850000
C        1.41520000      -0.64980000       0.04710000
C        2.70670000       0.13490000       0.18990000
C        1.46300000      -1.99580000       0.74920000
H        0.70900000       2.13470000      -0.27490000
H       -1.03590000       1.89630000      -0.25490000
H       -0.11560000       1.83470000       1.25290000
H       -0.73200000      -0.49590000       0.49930000
H        0.12700000      -1.50920000      -1.52370000
H        1.48380000       1.18210000      -2.23480000
H        2.38840000      -0.03600000      -4.21180000
H        1.62000000      -1.57990000      -3.62900000
H       -0.65510000      -0.49750000      -3.71160000
H        0.09310000       1.05640000      -4.29410000
H        2.68370000       1.10050000      -0.31830000
H        2.93050000       0.32440000       1.24670000
H        3.54850000      -0.43180000      -0.22550000
H        2.26750000      -2.62500000       0.34880000
H        1.64350000      -1.87470000       1.82470000
H        0.52230000      -2.54310000       0.63060000
