25
Properties=species:S:1:pos:R:3 gdb_115498=T pbc="F F F"
C       -0.34400000       1.55360000       0.36770000
C       -0.09320000       0.06060000       0.13070000
C       -1.36160000      -0.74510000      -0.15750000
C       -2.09740000      -0.36500000      -1.46230000
C       -2.92730000      -1.61630000      -1.85890000
C       -2.44670000      -2.76610000      -0.92840000
C       -1.12920000      -2.25460000      -0.34010000
O       -3.33250000      -2.97840000       0.16680000
C       -4.49090000      -3.70420000      -0.16120000
H        0.58700000       2.08040000       0.59960000
H       -0.78430000       2.03180000      -0.51330000
H       -1.03190000       1.70940000       1.20660000
H        0.60760000      -0.06540000      -0.70700000
H        0.40690000      -0.36420000       1.01090000
H       -2.05790000      -0.61870000       0.68250000
H       -2.71780000       0.52820000      -1.35310000
H       -1.35700000      -0.14180000      -2.24110000
H       -3.99940000      -1.45360000      -1.71960000
H       -2.78160000      -1.87440000      -2.91220000
H       -2.32540000      -3.71370000      -1.47450000
H       -0.31800000      -2.42030000      -1.06150000
H       -0.87570000      -2.78030000       0.58410000
H       -5.06230000      -3.83870000       0.76110000
H       -5.12880000      -3.18270000      -0.89130000
H       -4.24490000      -4.69620000      -0.57390000
