23
Properties=species:S:1:pos:R:3 gdb_114062=T pbc="F F F"
C        0.09320000       1.53060000      -0.10670000
C       -0.02790000       0.02830000       0.16770000
C       -1.45580000      -0.49370000       0.04820000
C       -2.12470000      -0.55430000      -1.37580000
C       -2.30640000      -2.06830000      -1.17980000
C       -3.33540000      -2.96710000      -1.78440000
O       -0.98140000      -2.59930000      -0.97730000
C       -1.66610000      -2.02100000       0.15180000
C       -1.80910000      -2.85340000       1.38480000
H        1.13070000       1.86760000      -0.01750000
H       -0.25070000       1.78050000      -1.11630000
H       -0.50800000       2.11450000       0.59970000
H        0.60460000      -0.53430000      -0.52790000
H        0.34990000      -0.18780000       1.17630000
H       -2.11480000       0.03030000       0.75100000
H       -3.06490000       0.00040000      -1.43190000
H       -1.48990000      -0.28010000      -2.22320000
H       -3.15510000      -3.09590000      -2.85800000
H       -3.30860000      -3.95570000      -1.31800000
H       -4.33930000      -2.54710000      -1.66180000
H       -0.85670000      -2.91990000       1.92340000
H       -2.54850000      -2.41690000       2.06450000
H       -2.12190000      -3.87020000       1.13190000
