19
Properties=species:S:1:pos:R:3 gdb_49313=T pbc="F F F"
O        0.12650000      -0.01370000       0.83060000
C        0.14330000       1.15190000       0.55610000
C        1.36900000       1.92770000       0.09730000
N        2.47650000       1.30080000       0.09730000
C        3.77160000       1.90660000      -0.12530000
C        3.95550000       2.89650000      -1.28450000
C        3.19380000       4.20940000      -1.10420000
C        1.68420000       4.04400000      -1.24820000
N        1.05830000       3.24880000      -0.19450000
H       -0.78740000       1.77060000       0.62000000
H        4.06080000       2.41790000       0.80860000
H        4.48770000       1.08700000      -0.25130000
H        5.02860000       3.10560000      -1.37020000
H        3.65350000       2.41840000      -2.22590000
H        3.42270000       4.64750000      -0.12440000
H        3.51670000       4.93180000      -1.86280000
H        1.20110000       5.02590000      -1.22480000
H        1.47580000       3.60410000      -2.23800000
H        0.06890000       3.44010000      -0.11200000
