18
Properties=species:S:1:pos:R:3 gdb_55964=T pbc="F F F"
C       -0.05170000       1.41300000      -0.30330000
C       -0.00990000      -0.08380000      -0.40990000
N        0.92730000      -0.69850000      -0.99470000
O       -1.11750000      -0.61750000       0.20670000
C       -1.14140000      -1.99930000       0.47040000
C       -2.38390000      -2.48350000       1.26350000
C       -2.54100000      -3.69800000       0.29990000
C       -1.54880000      -3.00000000      -0.64560000
O       -1.26520000      -3.10620000      -1.80170000
H        0.80950000       1.83850000      -0.81600000
H       -0.97380000       1.79430000      -0.75330000
H       -0.05150000       1.72290000       0.74640000
H        0.77670000      -1.70490000      -1.04910000
H       -0.19730000      -2.32250000       0.93410000
H       -2.22340000      -2.70450000       2.31830000
H       -3.20100000      -1.76720000       1.16080000
H       -2.13520000      -4.63470000       0.69460000
H       -3.53100000      -3.89650000      -0.11580000
