22
Properties=species:S:1:pos:R:3 gdb_113887=T pbc="F F F"
C        0.04640000       1.48830000      -0.33310000
C       -0.22590000       0.18890000       0.43420000
C       -1.36870000      -0.60590000      -0.16660000
C       -1.13650000      -1.56380000      -1.31160000
C       -1.56270000      -2.08870000       0.04950000
C       -0.63170000      -2.92230000       0.90700000
C       -0.66210000      -4.43510000       0.66090000
N       -0.98280000      -4.81600000      -0.60890000
O       -0.38660000      -5.23380000       1.53470000
H        0.86560000       2.05320000       0.12210000
H        0.31540000       1.28120000      -1.37410000
H       -0.83890000       2.13370000      -0.34270000
H        0.68660000      -0.41730000       0.45250000
H       -0.45660000       0.42430000       1.48140000
H       -2.29630000      -0.03990000      -0.22540000
H       -1.84290000      -1.58470000      -2.13510000
H       -0.10460000      -1.73340000      -1.60790000
H       -2.60260000      -2.39940000       0.11910000
H        0.40910000      -2.60730000       0.76740000
H       -0.84970000      -2.79060000       1.97100000
H       -1.22390000      -4.14700000      -1.31860000
H       -0.99370000      -5.79900000      -0.82360000
