19
Properties=species:S:1:pos:R:3 gdb_95891=T pbc="F F F"
C       -0.42510000       1.47730000      -0.07810000
C       -0.05740000      -0.00650000      -0.05270000
C        0.87900000      -0.39480000      -1.21340000
C        1.29780000      -1.86510000      -1.10790000
N        1.70000000      -2.14490000       0.25930000
C        1.32200000      -1.33790000       1.28500000
C        1.93250000      -1.67650000       2.60830000
O        2.71790000      -2.58200000       2.76130000
N        0.51680000      -0.33680000       1.25400000
H        0.47380000       2.09630000       0.01180000
H       -0.93640000       1.74290000      -1.00910000
H       -1.08090000       1.71570000       0.76320000
H       -0.98810000      -0.58850000      -0.15510000
H        0.39340000      -0.21620000      -2.17740000
H        1.77080000       0.24230000      -1.17270000
H        0.46710000      -2.51990000      -1.40740000
H        2.13360000      -2.07770000      -1.78310000
H        2.38960000      -2.84760000       0.47670000
H        1.59600000      -1.01300000       3.42670000
