21
Properties=species:S:1:pos:R:3 gdb_101260=T pbc="F F F"
C        0.18680000       1.41140000       0.22940000
C       -0.15150000      -0.06910000       0.00630000
C       -1.66310000      -0.29210000      -0.08890000
O       -2.26030000       0.17190000       1.11400000
C        0.53380000      -0.60650000      -1.23480000
C        1.96130000      -1.06380000      -1.19650000
C        0.85560000      -2.09130000      -1.39950000
C        0.54880000      -3.03760000      -0.36730000
C        0.28350000      -3.84300000       0.48710000
H        1.26420000       1.55270000       0.35810000
H       -0.12950000       2.01820000      -0.62800000
H       -0.32550000       1.79040000       1.11610000
H        0.19810000      -0.64420000       0.87240000
H       -2.05960000       0.25300000      -0.96340000
H       -1.86070000      -1.36250000      -0.24300000
H       -3.20430000      -0.00170000       1.06620000
H        0.22140000      -0.12240000      -2.15820000
H        2.61030000      -0.85350000      -2.03920000
H        2.45930000      -1.07440000      -0.23310000
H        0.75530000      -2.48220000      -2.40790000
H        0.05620000      -4.55150000       1.24430000
