17
Properties=species:S:1:pos:R:3 gdb_55066=T pbc="F F F"
C        0.12910000       1.29130000       0.39380000
C        0.13480000      -0.19290000       0.09500000
O        1.15670000      -0.82310000      -0.05790000
C       -1.21540000      -0.85190000       0.01600000
C       -1.25990000      -2.25880000      -0.54950000
C       -1.47030000      -2.05210000       0.91330000
O       -0.49660000      -2.37790000       1.87160000
C        0.02540000      -3.62920000       1.85580000
O        0.79980000      -4.00250000       2.68090000
H        1.15220000       1.66310000       0.45150000
H       -0.41900000       1.83350000      -0.38560000
H       -0.39000000       1.48200000       1.34010000
H       -2.06370000      -0.19290000      -0.13180000
H       -2.10740000      -2.55690000      -1.15520000
H       -0.29010000      -2.62450000      -0.86900000
H       -2.47770000      -2.14710000       1.30830000
H       -0.34930000      -4.23610000       1.01320000
