21
Properties=species:S:1:pos:R:3 gdb_111012=T pbc="F F F"
C       -0.27890000       1.39240000       0.10300000
O        0.24730000       0.10720000      -0.15680000
C        0.76880000      -0.52210000       0.97410000
C       -0.12850000      -1.34030000       1.94460000
C       -0.96130000      -2.23090000       1.00500000
C        0.20900000      -2.70680000       0.09130000
C        1.35810000      -1.93860000       0.78540000
C        2.78180000      -2.20850000       0.39000000
O        1.04980000      -2.15850000       2.20700000
H        0.48540000       2.06310000       0.52390000
H       -0.62310000       1.80130000      -0.84960000
H       -1.12820000       1.35590000       0.80080000
H        1.46100000       0.12380000       1.52950000
H       -0.58770000      -0.92880000       2.84330000
H       -1.43820000      -3.04720000       1.55110000
H       -1.72520000      -1.66900000       0.46230000
H        0.37980000      -3.78460000       0.14170000
H        0.08510000      -2.40960000      -0.95210000
H        2.93850000      -1.93160000      -0.65740000
H        3.47600000      -1.63480000       1.01020000
H        3.01800000      -3.27200000       0.49980000
