13
Properties=species:S:1:pos:R:3 gdb_69033=T pbc="F F F"
O        0.10820000       1.40720000      -0.19300000
C        0.05110000       0.06170000      -0.04870000
C       -0.25000000      -0.82980000      -1.22500000
C       -1.10850000      -0.98390000      -0.00050000
O       -0.37290000      -1.75100000       0.98950000
C        0.60510000      -0.75550000       1.07920000
N        1.53540000      -0.58510000       1.89380000
C       -2.51480000      -0.86520000       0.11460000
N       -3.66300000      -0.74370000       0.20070000
H        0.08050000       1.81650000       0.68120000
H       -0.71720000      -0.29020000      -2.04360000
H        0.40710000      -1.64690000      -1.50730000
H        1.58710000      -1.33340000       2.58630000
