18
Properties=species:S:1:pos:R:3 gdb_63360=T pbc="F F F"
C       -0.01610000       1.57220000      -0.00420000
C       -0.00210000       0.04030000       0.02870000
O       -1.35690000      -0.45280000      -0.00750000
C        0.64810000      -0.53510000      -1.23820000
C        0.94630000      -2.02560000      -1.17390000
O        0.92000000      -2.76880000      -2.13020000
N        1.34300000      -2.46840000       0.07580000
C        1.29380000      -1.68930000       1.22710000
C        0.71340000      -0.48640000       1.25220000
H        0.99870000       1.98240000      -0.01690000
H       -0.55370000       1.92610000      -0.88820000
H       -0.52660000       1.96380000       0.88290000
H       -1.72540000      -0.35750000       0.87720000
H        0.00920000      -0.35950000      -2.10540000
H        1.60590000      -0.03020000      -1.41640000
H        1.62310000      -3.43610000       0.12620000
H        1.76830000      -2.13310000       2.09530000
H        0.71260000       0.09720000       2.16550000
