16
Properties=species:S:1:pos:R:3 gdb_1245=T pbc="F F F"
C        0.02000000       1.55670000       0.06770000
C       -0.00690000       0.03020000       0.02570000
O        0.69130000      -0.53730000       1.13220000
C       -1.43710000      -0.52020000      -0.06650000
C       -1.44740000      -2.05930000      -0.12880000
C       -2.79680000      -2.61600000      -0.10890000
N       -3.87240000      -3.03860000      -0.09040000
H        1.05000000       1.91450000       0.14450000
H       -0.43260000       1.98740000      -0.83080000
H       -0.53990000       1.93140000       0.93400000
H        0.55740000      -0.31310000      -0.85130000
H        0.32750000      -0.15260000       1.93790000
H       -2.01180000      -0.18730000       0.80730000
H       -1.93870000      -0.10750000      -0.94840000
H       -0.93990000      -2.40560000      -1.03690000
H       -0.87880000      -2.45610000       0.71800000
