13
Properties=species:S:1:pos:R:3 gdb_131183=T pbc="F F F"
O       -0.06810000       1.27090000      -0.07580000
C        0.02080000      -0.06950000      -0.09010000
C        0.28830000      -0.97930000      -1.09530000
O        0.58500000      -0.61770000      -2.39590000
C       -0.26930000      -1.04730000      -3.37180000
O       -0.08010000      -0.81040000      -4.52200000
C        0.25940000      -2.24270000      -0.46740000
N       -0.01830000      -2.13210000       0.82570000
N       -0.15310000      -0.79510000       1.03250000
H        0.15890000       1.59580000      -0.95590000
H       -1.11660000      -1.62030000      -2.95440000
H        0.43000000      -3.21380000      -0.90820000
H       -0.35760000      -0.44700000       1.95400000
