21
Properties=species:S:1:pos:R:3 gdb_60857=T pbc="F F F"
C        0.04790000       1.55720000      -0.22380000
C       -0.00960000       0.03700000      -0.02590000
C        0.80330000      -0.37980000       1.18990000
O        1.38010000      -1.43260000       1.29590000
C       -1.45580000      -0.52070000       0.09840000
C       -2.24360000       0.05320000       1.27410000
C       -2.19440000      -0.53680000      -1.26750000
O       -2.02370000      -1.95770000      -1.40020000
C       -1.50370000      -2.06560000      -0.05850000
H        1.06730000       1.88170000      -0.45420000
H       -0.59420000       1.87260000      -1.05140000
H       -0.27440000       2.09540000       0.67330000
H        0.44560000      -0.46740000      -0.88600000
H        0.82470000       0.36350000       2.02170000
H       -2.35700000       1.13930000       1.19830000
H       -3.24760000      -0.38080000       1.30600000
H       -1.76130000      -0.16670000       2.23300000
H       -3.25420000      -0.25070000      -1.20750000
H       -1.72550000       0.01310000      -2.09270000
H       -0.54380000      -2.58940000      -0.02300000
H       -2.21370000      -2.56320000       0.61600000
