16
Properties=species:S:1:pos:R:3 gdb_32010=T pbc="F F F"
C        0.00700000       1.56050000       0.19050000
C       -0.01870000       0.04850000      -0.09700000
C       -1.40920000      -0.50140000      -0.16520000
C       -2.00020000      -1.07600000      -1.24520000
C       -3.33780000      -1.52410000      -1.07450000
N       -4.02820000      -1.41930000       0.02480000
C       -3.44290000      -0.83140000       1.12290000
O       -3.93730000      -0.65340000       2.19340000
O       -2.08340000      -0.37860000       0.97960000
H        1.03950000       1.91070000       0.26670000
H       -0.48570000       2.12060000      -0.60960000
H       -0.50390000       1.78290000       1.12990000
H        0.49130000      -0.17620000      -1.03790000
H        0.51500000      -0.48120000       0.70160000
H       -1.47470000      -1.18760000      -2.18270000
H       -3.84770000      -1.99670000      -1.91480000
