19
Properties=species:S:1:pos:R:3 gdb_75451=T pbc="F F F"
C       -0.12510000       1.48080000       0.03130000
C       -0.01130000      -0.00640000      -0.05130000
C        0.05070000      -0.78070000      -1.13410000
C        0.13230000      -2.25060000      -0.80850000
C        0.45210000      -2.25100000       0.70200000
C        0.02540000      -0.85370000       1.22570000
O        1.01830000      -0.40530000       2.15780000
C       -1.29450000      -0.85710000       1.87030000
C       -2.37120000      -0.81910000       2.40610000
H        0.71550000       1.90210000       0.59510000
H       -0.13560000       1.93890000      -0.96080000
H       -1.04360000       1.77550000       0.55470000
H        0.01880000      -0.40950000      -2.15370000
H       -0.82120000      -2.75310000      -1.02080000
H        0.89390000      -2.77550000      -1.39600000
H       -0.02090000      -3.06390000       1.25500000
H        1.53180000      -2.31360000       0.86230000
H        0.61030000       0.25060000       2.73250000
H       -3.32360000      -0.80120000       2.87600000
