20
Properties=species:S:1:pos:R:3 gdb_10518=T pbc="F F F"
C        0.81050000       0.80860000       0.51220000
C        0.11680000      -0.31320000      -0.27100000
C       -1.33080000      -0.51860000       0.13140000
C       -2.30190000       0.59790000      -0.19880000
O       -2.30690000       0.78660000      -1.59770000
C       -3.13950000       1.84660000      -2.00420000
C       -1.86720000      -1.87500000       0.30650000
O       -1.53810000      -1.06680000       1.44180000
H        1.86830000       0.87090000       0.24040000
H        0.36230000       1.78610000       0.30840000
H        0.74620000       0.62330000       1.58870000
H        0.14400000      -0.09950000      -1.34490000
H        0.65570000      -1.25330000      -0.11260000
H       -3.30340000       0.33110000       0.17390000
H       -2.00140000       1.52660000       0.31460000
H       -3.06850000       1.92030000      -3.09200000
H       -4.19070000       1.66930000      -1.72720000
H       -2.82620000       2.80480000      -1.56020000
H       -2.93000000      -2.06250000       0.15830000
H       -1.21760000      -2.73360000       0.14300000
