17
Properties=species:S:1:pos:R:3 gdb_72682=T pbc="F F F"
O        0.16890000       1.39880000      -0.23420000
C        0.06090000       0.03660000      -0.03810000
C        0.65160000      -0.94250000      -1.09020000
C       -0.70670000      -1.70270000      -1.19150000
C       -1.28960000      -0.83090000      -0.04880000
N       -0.90400000      -1.36100000       1.28920000
C        0.20510000      -0.37580000       1.43410000
C       -2.60700000      -0.26240000      -0.17740000
N       -3.65620000       0.21600000      -0.28210000
H        0.09000000       1.59570000      -1.17410000
H        0.94170000      -0.43860000      -2.01700000
H        1.50510000      -1.52710000      -0.73940000
H       -1.21120000      -1.54510000      -2.14720000
H       -0.68990000      -2.76650000      -0.95460000
H       -1.63370000      -1.26730000       1.98590000
H        1.15860000      -0.81960000       1.73860000
H       -0.02700000       0.47380000       2.08600000
