23
Properties=species:S:1:pos:R:3 gdb_86615=T pbc="F F F"
C        0.82450000       1.46720000       0.12450000
C        0.03600000       0.16540000       0.02240000
C        0.53820000      -0.85090000      -1.04890000
C        1.15750000      -1.74480000       0.07070000
C        2.66230000      -1.66930000       0.19080000
C        3.39360000      -2.58320000       1.15040000
C        3.52410000      -2.79170000      -0.33590000
C        0.35580000      -0.90420000       1.11980000
O        0.98190000      -0.51490000       2.31740000
H        1.90690000       1.29930000       0.15250000
H        0.62010000       2.11080000      -0.73780000
H        0.55480000       2.01460000       1.03280000
H       -1.02980000       0.40400000      -0.04960000
H       -0.27170000      -1.34360000      -1.59200000
H        1.25040000      -0.45780000      -1.78040000
H        0.86470000      -2.79950000       0.03780000
H        3.08770000      -0.67530000       0.06980000
H        4.24900000      -2.19450000       1.69240000
H        2.79810000      -3.29300000       1.71420000
H        3.02020000      -3.64580000      -0.77630000
H        4.46590000      -2.53880000      -0.80970000
H       -0.55830000      -1.42670000       1.41870000
H        1.91930000      -0.39320000       2.13630000
