15
Properties=species:S:1:pos:R:3 gdb_49141=T pbc="F F F"
O       -0.10620000      -0.03030000       0.13490000
C       -0.02850000       1.17290000       0.02600000
C        1.24160000       1.90420000       0.02410000
C        1.39630000       3.22310000      -0.10760000
C        2.86920000       3.56470000      -0.09470000
O        3.52540000       2.32660000       0.18740000
C        2.58960000       1.24600000       0.15140000
C        3.30500000       4.14870000      -1.36920000
C        3.64810000       4.63490000      -2.41290000
H       -0.93510000       1.80690000      -0.08090000
H        0.61990000       3.96590000      -0.23930000
H        3.10920000       4.27230000       0.71400000
H        2.68440000       0.65600000       1.07090000
H        2.79640000       0.57630000      -0.69530000
H        3.96160000       5.06170000      -3.33390000
