17
Properties=species:S:1:pos:R:3 gdb_109118=T pbc="F F F"
C       -0.02570000       1.48250000      -0.00610000
N       -0.01300000       0.03570000       0.06020000
C       -0.00770000      -0.78890000      -1.06930000
O       -0.01320000      -0.41370000      -2.21550000
C        0.00620000      -2.20210000      -0.48000000
N        0.00770000      -2.03570000       0.97150000
C       -0.00330000      -0.77380000       1.19080000
C       -0.00550000      -0.21770000       2.58660000
O        0.00560000      -1.24380000       3.53680000
H        0.86250000       1.91220000       0.46770000
H       -0.03020000       1.74790000      -1.06510000
H       -0.91950000       1.89660000       0.47120000
H       -0.87040000      -2.76670000      -0.81590000
H        0.89130000      -2.75100000      -0.81950000
H        0.87070000       0.44060000       2.70940000
H       -0.89300000       0.42480000       2.71290000
H        0.01210000      -2.07230000       3.03140000
