16
Properties=species:S:1:pos:R:3 gdb_79685=T pbc="F F F"
O       -0.26160000       1.53000000      -0.34720000
C       -0.30630000       0.14230000      -0.19270000
C       -0.40020000      -0.62840000       1.07820000
C       -1.44360000      -0.13630000       2.08690000
C       -2.20030000       1.08330000       1.71380000
N       -2.56840000      -0.21260000       1.09840000
C       -1.57920000      -0.62370000       0.03590000
C       -1.99210000      -1.70490000      -0.87760000
O       -1.25490000      -2.24820000      -1.66870000
H        0.61940000       1.82380000      -0.08890000
H        0.27870000      -0.40560000      -0.93440000
H        0.24980000      -1.47030000       1.28280000
H       -1.54360000      -0.61120000       3.05710000
H       -2.95620000       1.39910000       2.42820000
H       -1.75820000       1.86260000       1.11260000
H       -3.05770000      -1.99570000      -0.76340000
