17
Properties=species:S:1:pos:R:3 gdb_122783=T pbc="F F F"
O       -0.21340000       1.43750000       0.01250000
C       -0.03630000       0.03080000       0.00250000
C       -1.42240000      -0.60340000       0.01220000
C       -1.35390000      -2.12050000       0.00260000
O       -2.70970000      -2.61330000       0.01280000
C       -2.83620000      -3.95060000       0.00760000
O       -1.91700000      -4.73100000      -0.00470000
C       -4.23170000      -4.33560000       0.01900000
C       -5.37240000      -4.71230000       0.02850000
H        0.65470000       1.85090000       0.00680000
H        0.51950000      -0.29630000      -0.89170000
H        0.53680000      -0.30670000       0.88180000
H       -1.96450000      -0.26290000       0.90050000
H       -1.98170000      -0.25250000      -0.86130000
H       -0.84460000      -2.50630000      -0.88700000
H       -0.82750000      -2.51680000       0.87760000
H       -6.38190000      -5.04460000       0.03610000
