18
Properties=species:S:1:pos:R:3 gdb_85173=T pbc="F F F"
C        0.13010000       1.61840000      -0.06690000
C        0.08540000       0.09820000      -0.01020000
N        1.15150000      -0.59220000      -0.75300000
C        1.72170000      -1.21480000       0.32240000
O        2.67460000      -1.93920000       0.44810000
C        0.64650000      -0.62020000       1.27350000
C        1.14230000       0.21030000       2.42490000
C        2.41430000      -0.09560000       3.09680000
O        2.30100000       1.01460000       2.19860000
H        1.10980000       1.99420000       0.23460000
H       -0.08490000       1.96910000      -1.08200000
H       -0.62910000       2.04690000       0.59600000
H       -0.91140000      -0.26350000      -0.29010000
H        1.41580000      -0.57320000      -1.72730000
H       -0.03350000      -1.39300000       1.64640000
H        0.36590000       0.71040000       3.00690000
H        2.54030000       0.17030000       4.14500000
H        3.01460000      -0.92370000       2.72860000
