20
Properties=species:S:1:pos:R:3 gdb_63960=T pbc="F F F"
C       -0.11570000       1.56680000       0.02890000
C        0.01950000       0.04530000      -0.02260000
C       -1.35460000      -0.62540000       0.10150000
C        0.79310000      -0.42170000      -1.33430000
C        1.50220000      -1.68210000      -0.82260000
C        3.01520000      -1.98490000      -0.60170000
O        2.83320000      -1.85500000       0.86810000
C        1.60740000      -1.29950000       0.61320000
N        0.91230000      -0.38140000       1.12140000
H        0.86990000       2.04080000       0.03840000
H       -0.67000000       1.93370000      -0.84230000
H       -0.64800000       1.87740000       0.93250000
H       -2.03780000      -0.27190000      -0.67820000
H       -1.27780000      -1.71440000       0.02070000
H       -1.79590000      -0.39460000       1.07530000
H        0.12530000      -0.59010000      -2.18260000
H        1.51500000       0.35270000      -1.61460000
H        0.94760000      -2.60360000      -1.01170000
H        3.36380000      -2.98550000      -0.86080000
H        3.70950000      -1.21690000      -0.95260000
