17
Properties=species:S:1:pos:R:3 gdb_102797=T pbc="F F F"
O        0.20340000       1.13270000       0.36890000
C        0.32900000      -0.29080000       0.30910000
C       -1.00560000      -0.96410000       0.44090000
N       -1.85000000      -0.44390000       1.34990000
C       -2.97870000      -0.84670000       1.91380000
N       -3.67320000       0.09950000       2.70190000
H       -3.84500000      -0.23310000       3.64620000
H       -4.57690000       0.35350000       2.30950000
C       -2.56450000       0.24790000      -1.81090000
O       -1.70510000       0.98560000      -2.09470000
O       -3.47010000      -0.44720000      -1.59470000
H       -0.28580000       1.39830000      -0.41970000
H        0.81440000      -0.62100000      -0.62070000
H        1.02850000      -0.52820000       1.12770000
H       -1.15610000      -1.99470000       0.14480000
H       -1.58180000       0.50260000       1.62970000
H       -3.34790000      -1.83630000       1.66380000
