14
Properties=species:S:1:pos:R:3 gdb_31335=T pbc="F F F"
O        0.40540000       0.92710000       0.73780000
C       -0.03320000       0.08900000      -0.31540000
C       -1.39590000      -0.50000000      -0.09600000
C       -2.11380000      -0.68400000       1.05980000
O       -3.30590000      -1.27410000       0.70330000
C       -3.23040000      -1.41270000      -0.62450000
N       -2.13410000      -0.97550000      -1.16560000
C       -1.86480000      -0.41130000       2.47250000
O       -2.64600000      -0.66570000       3.36180000
H       -0.13580000       1.72390000       0.73010000
H       -0.03290000       0.60030000      -1.28790000
H        0.70590000      -0.71770000      -0.38600000
H       -4.07760000      -1.86340000      -1.11870000
H       -0.87830000       0.05360000       2.65330000
