17
Properties=species:S:1:pos:R:3 gdb_89144=T pbc="F F F"
N       -0.14620000       1.45020000       0.06840000
C       -0.03760000       0.03790000      -0.06720000
C        0.71090000      -0.78430000      -1.13370000
C       -0.49660000      -1.79280000      -1.14760000
O       -0.28260000      -3.16540000      -1.00180000
C       -1.17380000      -0.98190000      -0.02870000
C       -0.25870000      -0.81030000       1.17290000
C        0.66690000      -1.82510000       1.59950000
N        1.42090000      -2.65100000       1.90190000
H        0.73580000       1.85500000       0.36980000
H       -0.38360000       1.88000000      -0.82100000
H        0.82640000      -0.25300000      -2.08140000
H        1.67920000      -1.19770000      -0.83650000
H       -1.06720000      -1.68000000      -2.07310000
H        0.26850000      -3.32160000      -0.22540000
H       -2.23820000      -0.82260000       0.09690000
H       -0.71640000      -0.25350000       1.98380000
