23
Properties=species:S:1:pos:R:3 gdb_91811=T pbc="F F F"
C        0.73090000       1.42980000      -0.38600000
C        0.03000000       0.12460000      -0.00900000
O        0.10270000      -0.80210000      -1.10860000
C        0.88880000      -1.90530000      -0.75630000
C        2.32440000      -1.66830000      -0.34870000
C        1.23740000      -1.88560000       0.69770000
C        1.26950000      -3.12290000       1.56290000
C        0.56100000      -0.63080000       1.25590000
C        1.42230000       0.19370000       2.21710000
H        1.80860000       1.30560000      -0.52050000
H        0.31650000       1.79590000      -1.32940000
H        0.56620000       2.19680000       0.37750000
H       -1.03470000       0.35310000       0.12830000
H        0.60450000      -2.80330000      -1.29500000
H        3.02740000      -2.48290000      -0.49430000
H        2.75050000      -0.68280000      -0.49780000
H        1.67170000      -3.98000000       1.01350000
H        1.90160000      -2.97860000       2.44740000
H        0.26470000      -3.39030000       1.91140000
H       -0.31520000      -0.98210000       1.81630000
H        2.33250000       0.56140000       1.73550000
H        0.87490000       1.05720000       2.60850000
H        1.72430000      -0.41680000       3.07420000
