16
Properties=species:S:1:pos:R:3 gdb_123645=T pbc="F F F"
C       -0.05180000       1.48650000       0.01060000
C        1.42690000       1.90920000      -0.03200000
N        2.20540000       1.51610000       1.15890000
C        2.31730000       0.70160000      -0.08610000
C        1.40170000      -0.45870000      -0.06370000
C        1.31970000      -1.82960000      -0.05190000
N       -0.01330000      -2.11020000       0.04070000
N       -0.80610000      -1.01000000       0.09270000
C        0.06330000      -0.01610000       0.02400000
H       -0.55510000       1.88320000       0.89780000
H       -0.59060000       1.85390000      -0.87040000
H        1.69480000       2.82790000      -0.54320000
H        3.02100000       2.12280000       1.22690000
H        3.25520000       0.69920000      -0.63010000
H        2.05520000      -2.61700000      -0.09750000
H       -0.44610000      -3.01770000       0.05200000
