21
Properties=species:S:1:pos:R:3 gdb_110509=T pbc="F F F"
C       -0.05300000       1.54200000       0.09510000
C       -0.04190000       0.01110000       0.01740000
C        0.66290000      -0.53900000      -1.21770000
C        0.81960000      -2.05000000      -1.40060000
C       -0.46240000      -2.49020000      -2.12900000
O       -1.30580000      -1.34950000      -2.27080000
C       -0.09080000      -0.59550000      -2.59500000
C       -0.32950000       0.57700000      -3.49480000
C        0.67310000      -1.94150000      -2.91440000
H        0.96500000       1.94860000       0.08130000
H       -0.59560000       1.98500000      -0.74630000
H       -0.53550000       1.88810000       1.01450000
H        0.45860000      -0.39130000       0.90820000
H       -1.06560000      -0.37740000       0.03310000
H        1.63480000      -0.05390000      -1.37120000
H        1.43750000      -2.73830000      -0.83710000
H       -0.90890000      -3.47390000      -2.07060000
H       -1.03600000       1.27410000      -3.03260000
H        0.60580000       1.11100000      -3.68780000
H       -0.75130000       0.25100000      -4.45010000
H        1.26520000      -2.29860000      -3.74540000
