18
Properties=species:S:1:pos:R:3 gdb_12778=T pbc="F F F"
C       -0.12180000       1.50560000       0.06970000
C        0.13330000       0.03460000       0.00510000
O       -0.74080000      -0.84010000       0.73940000
C        0.67340000      -0.93480000       0.97640000
C        1.25660000      -1.82040000      -0.12980000
C        0.68920000      -0.79600000      -1.17670000
C       -0.31410000      -1.30130000      -2.19400000
O        0.37020000      -2.18900000      -3.07020000
H        0.75230000       2.06640000      -0.27690000
H       -0.97200000       1.78520000      -0.56290000
H       -0.34980000       1.80730000       1.09550000
H        1.00720000      -0.79640000       1.99920000
H        2.34780000      -1.86350000      -0.13100000
H        0.85160000      -2.83390000      -0.17600000
H        1.50290000      -0.27100000      -1.68660000
H       -1.13420000      -1.80670000      -1.66540000
H       -0.74530000      -0.45090000      -2.74880000
H       -0.27880000      -2.59190000      -3.65410000
