19
Properties=species:S:1:pos:R:3 gdb_113411=T pbc="F F F"
O        0.04320000       1.26810000      -0.66050000
C        0.06050000       0.15880000       0.22120000
C       -1.31070000      -0.45090000       0.36080000
O       -1.76860000      -1.15130000      -0.84130000
C       -1.54710000      -1.88630000       0.33760000
C       -0.70860000      -3.16420000       0.50480000
C       -1.31310000      -3.23140000       1.94180000
C       -2.51900000      -2.85550000       1.02550000
C       -1.98430000      -3.92960000       0.02230000
H       -0.32480000       0.94880000      -1.49260000
H        0.77070000      -0.61270000      -0.11170000
H        0.40360000       0.53860000       1.18990000
H       -2.07100000       0.20560000       0.78590000
H        0.32490000      -3.33920000       0.20780000
H       -1.35470000      -4.22770000       2.38700000
H       -0.97850000      -2.47940000       2.66090000
H       -3.55130000      -2.67310000       1.32210000
H       -2.26480000      -3.80630000      -1.02510000
H       -2.06680000      -4.96930000       0.34900000
