19
Properties=species:S:1:pos:R:3 gdb_72424=T pbc="F F F"
C       -0.02750000       1.48750000      -0.00220000
C       -0.00040000      -0.03070000       0.00460000
C        0.78170000      -0.67470000      -1.15500000
O        1.00390000      -2.03270000      -0.73160000
C        0.50670000      -2.13460000       0.61960000
C        0.71950000      -0.73320000       1.19070000
C       -1.02300000      -2.17290000       0.45140000
O       -1.76730000      -3.10480000       0.58850000
C       -1.38210000      -0.73180000       0.03590000
H        0.98660000       1.90080000       0.02990000
H       -0.51720000       1.87280000      -0.90340000
H       -0.57580000       1.87570000       0.86240000
H        0.22120000      -0.67380000      -2.09740000
H        1.74800000      -0.18060000      -1.32420000
H        0.95420000      -2.99980000       1.10450000
H        1.77600000      -0.46460000       1.27500000
H        0.22200000      -0.57400000       2.15240000
H       -2.04050000      -0.29340000       0.79510000
H       -1.91840000      -0.71190000      -0.91760000
