18
Properties=species:S:1:pos:R:3 gdb_18125=T pbc="F F F"
C        0.36490000       1.19850000       0.53440000
C        1.38610000       1.95940000      -0.32180000
C        2.17370000       0.83250000      -1.02430000
C        3.47430000       0.37240000      -0.33100000
C        3.01930000      -0.81870000       0.52280000
O        1.95410000      -1.41040000      -0.21300000
C        1.23250000      -0.40660000      -0.89450000
O        0.07600000       0.01690000      -0.20500000
H        0.77140000       0.95240000       1.52680000
H       -0.57450000       1.73880000       0.68050000
H        0.86350000       2.56990000      -1.06400000
H        2.02360000       2.62370000       0.26750000
H        2.35760000       1.08060000      -2.07030000
H        4.19810000       0.03540000      -1.07880000
H        3.94700000       1.16200000       0.25880000
H        3.79220000      -1.57970000       0.66150000
H        2.67900000      -0.49700000       1.51850000
H        0.88820000      -0.85450000      -1.82970000
