19
Properties=species:S:1:pos:R:3 gdb_68505=T pbc="F F F"
C        0.00400000       1.55370000       0.00640000
C        0.02460000       0.04640000      -0.03310000
C        0.40690000      -0.77610000      -1.30750000
C       -0.33900000      -1.96000000      -0.62290000
C        0.42720000      -2.18800000       0.68760000
C        1.83480000      -1.67880000       0.85310000
C        0.69290000      -0.73220000       1.11580000
C       -1.28130000      -0.81880000      -0.12060000
O       -2.45040000      -0.63860000       0.02170000
H        1.01470000       1.96890000      -0.06860000
H       -0.59490000       1.96140000      -0.81410000
H       -0.43380000       1.91050000       0.94480000
H       -0.12220000      -0.41640000      -2.19270000
H        1.46380000      -0.90130000      -1.53940000
H       -0.70000000      -2.82220000      -1.17880000
H        0.03820000      -2.92110000       1.38370000
H        2.33600000      -2.03440000       1.74790000
H        2.50760000      -1.55560000       0.01310000
H        0.50030000      -0.39370000       2.12730000
