19
Properties=species:S:1:pos:R:3 gdb_117212=T pbc="F F F"
O       -0.13980000       1.43730000       0.10160000
C        0.01300000       0.02570000       0.05800000
C       -1.38350000      -0.57520000       0.03640000
C       -1.37180000      -2.08810000      -0.05220000
O       -0.34070000      -2.72480000      -0.14880000
C       -2.70390000      -2.78280000      -0.00910000
O       -3.84030000      -1.97740000       0.12700000
C       -2.82230000      -4.09780000      -0.76300000
C       -2.75070000      -4.10220000       0.73270000
H        0.73730000       1.83060000       0.12080000
H        0.56830000      -0.29760000      -0.83370000
H        0.56330000      -0.35190000       0.93170000
H       -1.95520000      -0.27150000       0.92100000
H       -1.94830000      -0.16940000      -0.81420000
H       -4.07610000      -1.63130000      -0.74050000
H       -3.78370000      -4.29120000      -1.22540000
H       -1.94660000      -4.41710000      -1.31560000
H       -1.82780000      -4.42830000       1.19670000
H       -3.66370000      -4.28510000       1.28650000
