23
Properties=species:S:1:pos:R:3 gdb_90442=T pbc="F F F"
C       -0.10570000       1.57220000       0.17010000
C       -0.04950000       0.05880000       0.02560000
C        0.99970000      -0.59540000      -0.95840000
C        1.25770000      -1.71670000       0.11430000
C        2.60370000      -2.11390000       0.78330000
C        3.81030000      -1.31890000       0.27650000
C        2.32440000      -1.81110000       2.30190000
C        1.24010000      -0.73740000       2.27390000
C        0.62620000      -0.77200000       1.09600000
H        0.88510000       1.97720000       0.40110000
H       -0.46020000       2.04380000      -0.75290000
H       -0.78500000       1.86770000       0.97700000
H       -1.04710000      -0.33530000      -0.20760000
H        0.62720000      -0.91390000      -1.93540000
H        1.86330000       0.05960000      -1.09710000
H        0.64410000      -2.59700000      -0.11320000
H        2.80820000      -3.18000000       0.63880000
H        3.67910000      -0.24560000       0.45300000
H        4.72250000      -1.62970000       0.79660000
H        3.96850000      -1.46700000      -0.79680000
H        1.99520000      -2.71390000       2.83570000
H        3.23020000      -1.46610000       2.81540000
H        1.08340000      -0.03210000       3.08220000
