10
Properties=species:S:1:pos:R:3 gdb_130572=T pbc="F F F"
O        0.00240000      -0.03870000       0.00310000
C       -0.05150000       1.16310000       0.00670000
C        1.17160000       1.98320000       0.00050000
N        2.16100000       2.58040000      -0.00470000
C       -1.32850000       1.92090000       0.01750000
N       -1.34840000       3.23250000       0.02130000
O       -2.69540000       3.53130000       0.03130000
C       -3.34440000       2.35480000       0.03270000
N       -2.56720000       1.32290000       0.02450000
H       -4.42360000       2.39040000       0.04020000
