12
Properties=species:S:1:pos:R:3 gdb_23971=T pbc="F F F"
C        0.14850000      -1.18150000      -0.00590000
C        0.03310000       0.01660000       0.00230000
C       -0.11550000       1.41310000       0.01210000
C       -1.21170000       2.22630000       0.03190000
C       -0.71490000       3.57150000       0.03230000
C        0.65120000       3.46880000       0.01250000
O        1.02760000       2.18190000       0.00020000
C       -1.46950000       4.77070000       0.04940000
N       -2.09220000       5.74640000       0.06350000
H        0.24920000      -2.23900000      -0.01310000
H       -2.24270000       1.91500000       0.04460000
H        1.43710000       4.20570000       0.00550000
