15
Properties=species:S:1:pos:R:3 gdb_6355=T pbc="F F F"
C        0.28750000       1.47170000      -0.13250000
O       -0.18310000       0.22610000      -0.67130000
C        0.75690000      -0.70300000      -0.88970000
O        1.93380000      -0.52190000      -0.66390000
C        0.14920000      -1.98320000      -1.42110000
C        0.92270000      -2.69560000      -2.54750000
N        2.27310000      -2.68790000      -2.41460000
O        0.32380000      -3.26670000      -3.43590000
H        1.00740000       1.93420000      -0.81170000
H       -0.59750000       2.09810000      -0.02600000
H        0.76640000       1.31380000       0.83680000
H        0.09640000      -2.68220000      -0.57600000
H       -0.86730000      -1.81240000      -1.77090000
H        2.70440000      -2.05480000      -1.75550000
H        2.81480000      -3.08810000      -3.16330000
