21
Properties=species:S:1:pos:R:3 gdb_63043=T pbc="F F F"
C       -0.05560000       1.51220000       0.01480000
C        0.06280000      -0.01280000      -0.00340000
O       -1.24960000      -0.56560000      -0.11870000
C        1.04920000      -0.63400000      -1.03090000
C        2.39880000       0.03710000      -0.67130000
C        2.24530000      -0.77590000       0.62380000
C        1.52410000      -1.90010000      -0.18500000
C        0.57900000      -2.14160000       1.00060000
C        0.77530000      -0.61990000       1.22890000
H        0.86420000       2.01220000       0.32430000
H       -0.32970000       1.90000000      -0.97480000
H       -0.84480000       1.79220000       0.71870000
H       -1.64410000      -0.20430000      -0.91920000
H        0.69730000      -0.71630000      -2.06100000
H        3.22410000      -0.36750000      -1.26600000
H        2.47100000       1.12690000      -0.65900000
H        3.05500000      -0.97010000       1.32690000
H        2.05860000      -2.68460000      -0.72060000
H       -0.43320000      -2.51000000       0.83970000
H        1.08670000      -2.73240000       1.76940000
H        0.59110000      -0.14900000       2.19500000
