17
Properties=species:S:1:pos:R:3 gdb_79995=T pbc="F F F"
O       -0.26050000       1.37940000      -0.13400000
C       -0.13510000      -0.01340000       0.01270000
C        0.25570000      -0.58570000       1.42990000
C       -0.95330000      -0.07480000       2.23040000
C       -2.01600000      -0.15080000       1.43420000
C       -1.53700000      -0.70310000       0.07470000
O       -2.38550000      -0.53860000      -1.02330000
C       -1.04060000      -2.13290000       0.28820000
C        0.02510000      -2.06610000       1.09000000
H        0.55700000       1.71960000      -0.50760000
H        0.48610000      -0.43980000      -0.78260000
H        1.23910000      -0.33150000       1.82570000
H       -0.90860000       0.23900000       3.26440000
H       -3.05270000       0.07270000       1.64690000
H       -2.43450000       0.41030000      -1.19030000
H       -1.51430000      -2.99700000      -0.15690000
H        0.63320000      -2.88100000       1.45880000
