17
Properties=species:S:1:pos:R:3 gdb_51165=T pbc="F F F"
O       -0.55840000       0.44920000       0.43350000
C        0.26410000       0.87160000      -0.33720000
C        1.28140000       1.94950000      -0.00340000
C        1.25160000       3.07070000      -1.01370000
O        1.80850000       2.75010000      -2.31850000
C        2.42520000       3.78740000      -1.55020000
C        1.99170000       5.19590000      -1.93690000
C        0.50510000       5.18740000      -1.63790000
C        0.10300000       4.03010000      -1.10840000
H        0.33640000       0.48650000      -1.37810000
H        1.08550000       2.31700000       1.00810000
H        2.27500000       1.48440000      -0.02730000
H        3.44310000       3.58510000      -1.22600000
H        2.52470000       5.95260000      -1.34710000
H        2.20090000       5.40760000      -2.99240000
H       -0.13770000       6.02850000      -1.87090000
H       -0.90560000       3.77920000      -0.80350000
