16
Properties=species:S:1:pos:R:3 gdb_61752=T pbc="F F F"
C        0.05930000       1.44970000      -0.31820000
C       -0.10680000      -0.04440000       0.04660000
N        0.63390000      -0.41180000       1.23440000
C        1.97910000      -0.58930000       1.22190000
O        2.68750000      -0.41340000       0.25170000
C       -1.56640000      -0.37820000       0.27870000
O       -2.02430000      -0.67700000       1.35920000
C       -2.52030000      -0.34790000      -0.92270000
O       -2.16620000      -0.14840000      -2.05350000
H        1.12360000       1.64220000      -0.46310000
H       -0.47190000       1.68340000      -1.24280000
H       -0.31220000       2.08820000       0.48870000
H        0.25300000      -0.63300000      -0.80620000
H        0.09230000      -0.62550000       2.05960000
H        2.36590000      -0.91300000       2.20770000
H       -3.57040000      -0.55890000      -0.63290000
