15
Properties=species:S:1:pos:R:3 gdb_79384=T pbc="F F F"
O       -0.02340000       1.49300000      -0.06290000
C        0.06930000       0.09210000      -0.03710000
C        0.07210000      -0.60330000       1.34300000
C       -1.46830000      -0.35520000       1.53190000
N       -1.83210000      -1.79060000       1.77960000
C       -0.72250000      -1.83710000       0.77040000
C       -0.18100000      -3.05280000       0.22170000
N        0.27310000      -4.02420000      -0.21150000
C       -1.29720000      -0.59970000      -0.00280000
H        0.86480000       1.86120000      -0.02570000
H        0.78640000      -0.29340000      -0.77320000
H        0.83720000      -0.64500000       2.11980000
H       -1.96350000       0.47780000       2.02290000
H       -1.48230000      -2.09420000       2.69320000
H       -2.08920000      -0.63670000      -0.74810000
