21
Properties=species:S:1:pos:R:3 gdb_111752=T pbc="F F F"
C        0.08760000       1.53480000       0.06980000
C        0.03920000       0.00940000       0.23990000
C       -1.33050000      -0.53720000      -0.02050000
O       -2.37510000      -0.11990000       0.86320000
C       -2.96960000      -1.44090000       0.82690000
C       -1.93590000      -1.94280000      -0.17540000
C       -1.88620000      -0.96830000      -1.33740000
O       -3.02120000      -0.37090000      -1.86540000
C       -3.72950000      -1.22070000      -2.74630000
H        1.08470000       1.92120000       0.30010000
H       -0.16330000       1.82390000      -0.95550000
H       -0.63010000       2.01710000       0.73900000
H        0.74680000      -0.47390000      -0.44380000
H        0.34150000      -0.26170000       1.25870000
H       -2.89740000      -1.92160000       1.80840000
H       -4.01470000      -1.41230000       0.50010000
H       -1.47940000      -2.92450000      -0.18570000
H       -1.12100000      -1.22540000      -2.07540000
H       -3.12450000      -1.48690000      -3.62670000
H       -4.04310000      -2.15000000      -2.24940000
H       -4.61490000      -0.67400000      -3.07860000
