20
Properties=species:S:1:pos:R:3 gdb_52960=T pbc="F F F"
C       -0.04690000       1.50680000       0.03200000
C       -0.03700000       0.05220000       0.00300000
C       -0.03490000      -1.15300000      -0.00670000
C       -0.00260000      -2.57720000      -0.06730000
C        0.79040000      -3.41490000      -1.09390000
C       -0.38090000      -4.45770000      -1.12100000
C       -0.08690000      -5.92120000      -0.81510000
C       -1.10880000      -3.61610000      -0.05660000
N       -0.29730000      -3.37960000       1.12570000
H        0.84030000       1.92010000      -0.46080000
H       -0.92800000       1.91270000      -0.47800000
H       -0.05790000       1.88180000       1.06150000
H        0.93060000      -2.90990000      -2.05120000
H        1.76310000      -3.77110000      -0.73660000
H       -0.91010000      -4.38080000      -2.07610000
H        0.41700000      -6.04310000       0.15060000
H       -1.00890000      -6.51170000      -0.78470000
H        0.56530000      -6.35740000      -1.57930000
H       -2.18040000      -3.47430000       0.03250000
H        0.40280000      -4.10250000       1.28660000
