18
Properties=species:S:1:pos:R:3 gdb_90478=T pbc="F F F"
O       -0.49920000       1.39840000      -0.03010000
C       -0.42010000       0.01450000       0.20030000
C       -1.77040000      -0.75080000       0.01080000
C       -1.44440000      -1.94700000      -0.86390000
C       -1.09180000      -1.75060000      -2.33050000
C       -1.40050000      -0.49640000      -3.04480000
O       -1.23510000       0.64230000      -2.65340000
N       -0.05540000      -1.93680000      -1.28410000
C        0.59160000      -0.72860000      -0.72840000
H       -0.75380000       1.49530000      -0.95900000
H       -0.09410000      -0.07970000       1.24050000
H       -2.17900000      -1.09310000       0.96510000
H       -2.50860000      -0.07870000      -0.43360000
H       -1.86760000      -2.91690000      -0.61310000
H       -1.18430000      -2.62460000      -2.97160000
H       -1.83550000      -0.67010000      -4.05220000
H        0.94720000      -0.06140000      -1.51570000
H        1.46470000      -1.07790000      -0.16980000
