19
Properties=species:S:1:pos:R:3 gdb_2528=T pbc="F F F"
C        0.74290000      -0.21450000       1.36010000
C        0.04450000      -0.07850000       0.00610000
C       -1.39690000      -0.64050000      -0.01760000
C       -2.09240000      -0.34620000      -1.36810000
C       -3.56600000      -0.75440000      -1.41070000
C       -1.41160000      -2.07210000       0.28420000
C       -1.40800000      -3.25410000       0.50840000
H        1.75590000       0.19740000       1.32070000
H        0.19550000       0.32220000       2.14320000
H        0.81390000      -1.26340000       1.66180000
H       -0.00540000       0.97910000      -0.28090000
H        0.63020000      -0.58670000      -0.76930000
H       -1.96810000      -0.12560000       0.77020000
H       -1.99970000       0.72920000      -1.56330000
H       -1.53950000      -0.85860000      -2.16460000
H       -3.68180000      -1.82670000      -1.22910000
H       -4.14620000      -0.22180000      -0.64870000
H       -4.00730000      -0.52490000      -2.38540000
H       -1.41290000      -4.29480000       0.71820000
