15
Properties=species:S:1:pos:R:3 gdb_25611=T pbc="F F F"
O       -0.06060000       0.45870000       0.79730000
C        0.02580000       1.36200000      -0.00840000
N        1.15000000       1.69680000      -0.69370000
C        2.43160000       1.04650000      -0.46360000
C        3.49310000       2.04380000      -0.12390000
C        4.35850000       2.09240000       0.91560000
O        5.14290000       3.20400000       0.76720000
C        4.69460000       3.77840000      -0.36890000
N        3.72620000       3.14750000      -0.94620000
H       -0.82750000       2.01400000      -0.27990000
H        1.14290000       2.50910000      -1.29090000
H        2.28330000       0.33350000       0.34940000
H        2.72770000       0.48150000      -1.35730000
H        4.54610000       1.47940000       1.77980000
H        5.18040000       4.69080000      -0.67710000
