15
Properties=species:S:1:pos:R:3 gdb_87474=T pbc="F F F"
C       -0.00390000       1.53810000      -0.09800000
C       -0.02490000       0.04170000       0.05000000
O        1.25370000      -0.65010000      -0.11000000
C        0.63530000      -0.65830000       1.13770000
C        1.17140000      -0.25000000       2.52390000
O       -0.09240000      -0.80990000       3.07460000
C        0.26210000      -1.83690000       2.05690000
C        1.69640000      -1.71610000       2.66480000
O        2.58320000      -2.35610000       3.11530000
H        0.85280000       1.97100000       0.42400000
H        0.05740000       1.81720000      -1.15450000
H       -0.92190000       1.97030000       0.31370000
H       -0.84610000      -0.47390000      -0.44840000
H        1.52380000       0.70110000       2.91430000
H       -0.41410000      -2.67610000       1.91640000
