19
Properties=species:S:1:pos:R:3 gdb_63357=T pbc="F F F"
C        0.07100000       1.35430000      -0.22990000
C       -0.16640000      -0.12710000       0.09910000
C       -1.65620000      -0.39700000       0.35800000
O        0.15880000      -0.85590000      -1.11650000
C        1.09340000      -1.82090000      -1.24510000
O        1.25230000      -2.33850000      -2.31790000
C        1.91450000      -2.22190000      -0.03020000
C        1.59620000      -1.48500000       1.23130000
C        0.66080000      -0.54670000       1.27950000
H        1.12770000       1.53390000      -0.44450000
H       -0.51790000       1.64160000      -1.10510000
H       -0.22380000       1.98600000       0.61340000
H       -2.24530000      -0.11010000      -0.51720000
H       -1.82310000      -1.45820000       0.56010000
H       -2.00570000       0.17940000       1.21980000
H        1.78280000      -3.30420000       0.09510000
H        2.96890000      -2.09980000      -0.30900000
H        2.16360000      -1.74620000       2.12030000
H        0.44150000      -0.02030000       2.20410000
