16
Properties=species:S:1:pos:R:3 gdb_116735=T pbc="F F F"
C       -0.19030000       1.17640000       0.10130000
C        0.02970000      -0.33730000       0.05470000
N        0.32400000      -1.03980000       1.29390000
C        0.37680000      -0.43250000       2.38290000
O        0.70190000      -1.08080000       3.56620000
C        0.04730000      -2.22740000       3.92820000
O       -0.95620000      -2.64690000       3.42880000
C        0.72750000      -2.83650000       5.04850000
C        1.25090000      -3.38600000       5.97980000
H        0.69220000       1.70560000       0.47620000
H       -0.39360000       1.54560000      -0.90810000
H       -1.04500000       1.44500000       0.73090000
H       -0.85360000      -0.82820000      -0.37260000
H        0.85100000      -0.57260000      -0.63400000
H        0.25380000       0.63480000       2.57430000
H        1.71530000      -3.87430000       6.80190000
