19
Properties=species:S:1:pos:R:3 gdb_40800=T pbc="F F F"
C        1.37870000       0.02960000      -0.35630000
C        0.56920000      -1.06690000      -0.95190000
N       -0.03390000      -0.12690000      -0.00920000
C       -0.32450000      -0.64390000       1.32110000
C       -0.39640000       0.52250000       2.30480000
O       -0.77990000       0.07470000       3.61110000
C       -1.70570000      -0.91640000       3.64160000
N       -2.18410000      -1.60020000       2.69320000
C       -1.67740000      -1.36330000       1.34400000
H        2.12130000      -0.25130000       0.38910000
H        1.62640000       0.91280000      -0.93730000
H        0.21480000      -1.00010000      -1.97600000
H        0.77230000      -2.07810000      -0.60320000
H        0.45710000      -1.34370000       1.67070000
H        0.57050000       1.01660000       2.42500000
H       -1.12350000       1.26080000       1.94530000
H       -2.02400000      -1.08750000       4.66830000
H       -2.40780000      -0.77040000       0.77870000
H       -1.60480000      -2.33030000       0.83410000
