17
Properties=species:S:1:pos:R:3 gdb_19171=T pbc="F F F"
C       -0.05570000       1.57170000      -0.00210000
C       -0.00260000       0.05300000      -0.04080000
C        1.22960000      -0.64570000      -0.70010000
N        2.02090000      -0.21620000       0.52760000
C        3.25510000      -0.93400000       0.85460000
C        0.70920000      -0.71020000       1.12190000
C        0.86500000      -1.89890000       0.13780000
O        0.93850000      -3.08770000       0.11670000
H        0.90730000       1.99300000       0.28790000
H       -0.33070000       1.96810000      -0.98520000
H       -0.81540000       1.90790000       0.71130000
H       -0.96260000      -0.38300000      -0.33040000
H        1.62580000      -0.53890000      -1.70890000
H        4.03950000      -0.59730000       0.17020000
H        3.55390000      -0.65760000       1.87030000
H        3.18590000      -2.03070000       0.79600000
H        0.51160000      -0.67720000       2.19240000
