21
Properties=species:S:1:pos:R:3 gdb_114242=T pbc="F F F"
C        0.40440000       0.72950000       0.55130000
O        0.02590000      -0.43740000      -0.14220000
C        0.49340000      -0.47340000      -1.47030000
C        1.99230000      -0.90380000      -1.61460000
C        1.49120000      -2.30580000      -1.97960000
C        0.05460000      -1.80000000      -2.14040000
O        2.13380000      -3.17700000      -2.89290000
C        1.96840000      -3.61640000      -1.53070000
C        3.22350000      -3.80570000      -0.72090000
H        1.49710000       0.82750000       0.63800000
H        0.01800000       1.63590000       0.05900000
H       -0.02160000       0.66320000       1.55530000
H        0.21790000       0.45080000      -1.99650000
H        2.50010000      -0.41750000      -2.45250000
H        2.60710000      -0.80670000      -0.71620000
H       -0.73620000      -2.33860000      -1.61410000
H       -0.22050000      -1.67530000      -3.19120000
H        1.21900000      -4.40290000      -1.41830000
H        3.91560000      -2.97280000      -0.86940000
H        2.98360000      -3.87730000       0.34570000
H        3.73440000      -4.72920000      -1.01290000
