13
Properties=species:S:1:pos:R:3 gdb_129347=T pbc="F F F"
N       -0.15480000       1.28510000       0.10860000
C       -0.03360000       0.04710000      -0.05090000
O       -1.16310000      -0.72810000       0.10410000
C       -1.01730000      -2.06250000       0.07630000
N        0.08070000      -2.73970000       0.14040000
N       -0.36090000      -4.05530000       0.06020000
C       -1.72800000      -4.19220000      -0.01460000
O       -2.41580000      -5.18380000      -0.06890000
N       -2.13360000      -2.84040000      -0.01890000
H        0.73760000       1.74770000      -0.05490000
H        0.84890000      -0.53840000      -0.31180000
H        0.29760000      -4.80870000       0.14550000
H       -3.08840000      -2.52970000      -0.07150000
