25
Properties=species:S:1:pos:R:3 gdb_117676=T pbc="F F F"
C       -0.11290000       1.58340000      -0.15670000
C        0.05480000       0.07200000      -0.09900000
O       -1.23460000      -0.49200000       0.03890000
C       -1.35910000      -1.92170000       0.14180000
C       -0.79720000      -2.61900000      -1.11030000
C       -0.65150000      -2.43470000       1.40490000
C       -2.87250000      -2.11950000       0.16900000
C       -3.54420000      -3.38870000       0.62390000
C       -3.70370000      -2.11740000       1.42320000
H        0.85960000       2.07310000      -0.26770000
H       -0.74430000       1.86570000      -1.00400000
H       -0.58680000       1.95090000       0.75790000
H        0.55130000      -0.28360000      -1.01450000
H        0.70350000      -0.19920000       0.74770000
H        0.28830000      -2.51050000      -1.19040000
H       -1.02260000      -3.68870000      -1.07480000
H       -1.25340000      -2.20230000      -2.01350000
H       -0.94490000      -1.84600000       2.27770000
H       -0.88850000      -3.48550000       1.59390000
H        0.43460000      -2.36740000       1.29950000
H       -3.33350000      -1.63240000      -0.68580000
H       -4.38770000      -3.75360000       0.04800000
H       -2.93560000      -4.17740000       1.05320000
H       -3.20020000      -2.06270000       2.38130000
H       -4.65850000      -1.60410000       1.39870000
