14
Properties=species:S:1:pos:R:3 gdb_128601=T pbc="F F F"
C       -0.04350000       1.37160000       0.06260000
O       -0.00230000      -0.04580000       0.00810000
C        0.61070000      -0.57130000      -1.06410000
C        1.22180000       0.02950000      -2.14850000
N        1.67060000      -0.99990000      -2.92450000
N        1.40350000      -2.20690000      -2.43830000
C        0.75080000      -1.96780000      -1.29180000
C        0.28670000      -3.02020000      -0.46010000
N       -0.10450000      -3.85450000       0.24000000
H        0.96930000       1.79450000       0.08600000
H       -0.58750000       1.78310000      -0.79770000
H       -0.56760000       1.63130000       0.98250000
H        1.36870000       1.06000000      -2.42100000
H        2.16600000      -0.93140000      -3.79790000
