18
Properties=species:S:1:pos:R:3 gdb_96766=T pbc="F F F"
C       -0.49530000       1.28050000       0.00560000
N       -0.03820000      -0.09380000      -0.10590000
C        0.61840000      -0.56160000      -1.06430000
C        1.02080000      -2.01330000      -1.30940000
O       -0.03190000      -2.93930000      -1.28250000
C        1.47270000      -1.56170000      -2.72400000
N        1.15940000      -0.17490000      -2.32720000
C        1.40890000       0.96990000      -3.04150000
N        1.16680000       2.14850000      -2.62480000
H       -0.24760000       1.64730000       1.00790000
H       -0.07750000       1.95390000      -0.74830000
H       -1.59010000       1.28840000      -0.06630000
H        1.86220000      -2.33530000      -0.68110000
H       -0.62900000      -2.64490000      -0.58310000
H        2.52420000      -1.72900000      -2.97270000
H        0.82310000      -1.94690000      -3.51500000
H        1.85470000       0.72750000      -4.01460000
H        1.43810000       2.83290000      -3.32680000
