19
Properties=species:S:1:pos:R:3 gdb_78463=T pbc="F F F"
C        0.03050000       1.58740000       0.04160000
C       -0.00490000       0.07330000       0.00960000
C        1.27170000      -0.68290000      -0.27000000
C        0.67030000      -0.69810000       1.11790000
C        0.42100000      -2.23030000       1.32770000
O        1.57360000      -2.78320000       0.66200000
C        1.26650000      -2.20880000      -0.62370000
C       -0.17140000      -2.68430000      -0.81960000
C       -0.70150000      -2.69780000       0.40390000
H        0.97420000       1.95880000       0.45440000
H       -0.07890000       2.00400000      -0.96560000
H       -0.78230000       1.98610000       0.65840000
H       -0.92210000      -0.34440000      -0.39240000
H        2.18080000      -0.13270000      -0.48370000
H        1.13190000      -0.15930000       1.93740000
H        0.38760000      -2.54980000       2.36800000
H        2.00510000      -2.50870000      -1.36530000
H       -0.65390000      -2.86000000      -1.77120000
H       -1.72430000      -2.88710000       0.69930000
