12
Properties=species:S:1:pos:R:3 gdb_10448=T pbc="F F F"
N       -0.15960000      -1.05630000       0.50000000
C       -0.07470000       0.04320000       0.15840000
C        0.02390000       1.43690000      -0.27450000
C        1.43250000       2.00510000      -0.12840000
C        1.62600000       3.41670000       0.26200000
O        1.82880000       2.35590000       1.19200000
C        2.45470000       1.36560000      -0.94050000
N        3.24750000       0.86300000      -1.61360000
H       -0.29620000       1.51010000      -1.31980000
H       -0.65770000       2.04530000       0.32740000
H        2.52350000       3.93820000      -0.06130000
H        0.74650000       4.03480000       0.43350000
