12
Properties=species:S:1:pos:R:3 gdb_3428=T pbc="F F F"
O        0.01440000      -0.03250000      -0.06150000
C        0.01020000       1.17640000      -0.01490000
N       -1.08860000       1.99150000       0.09330000
C       -0.83040000       3.42150000       0.03880000
C        0.68970000       3.48400000      -0.01830000
O        1.31220000       2.90690000       1.12450000
C        1.20630000       2.11110000      -0.07180000
H       -1.99690000       1.59970000       0.28230000
H       -1.26940000       3.88160000      -0.85630000
H       -1.21670000       3.94480000       0.92160000
H        1.19030000       4.33730000      -0.46440000
H        2.13400000       1.79520000      -0.53480000
