23
Properties=species:S:1:pos:R:3 gdb_121383=T pbc="F F F"
C       -0.00600000       1.40320000      -0.00410000
O        0.01330000      -0.00280000       0.01340000
C       -1.27810000      -0.57340000       0.02340000
C       -1.14770000      -2.09790000      -0.01910000
C       -2.51440000      -2.77110000       0.18630000
C       -2.44770000      -4.26960000      -0.13100000
C       -2.04130000      -4.50480000      -1.59320000
C       -0.90600000      -3.60620000      -2.01130000
C       -0.49850000      -2.55220000      -1.30520000
H        1.03160000       1.74640000      -0.01050000
H       -0.51570000       1.79530000      -0.89870000
H       -0.51100000       1.81660000       0.88380000
H       -1.82410000      -0.26590000       0.93250000
H       -1.86150000      -0.21920000      -0.84450000
H       -0.48760000      -2.36710000       0.81990000
H       -2.86190000      -2.60910000       1.21300000
H       -3.25310000      -2.29640000      -0.47500000
H       -1.70910000      -4.74220000       0.52910000
H       -3.40980000      -4.74940000       0.07840000
H       -1.76000000      -5.55490000      -1.74430000
H       -2.90340000      -4.33780000      -2.25690000
H       -0.40280000      -3.85300000      -2.94400000
H        0.33940000      -1.95180000      -1.64800000
