22
Properties=species:S:1:pos:R:3 gdb_106330=T pbc="F F F"
C        0.00380000       1.59300000       0.33510000
O       -0.07810000       0.18590000       0.48580000
C       -1.34400000      -0.31260000       0.27080000
C       -2.41290000      -0.42650000       1.37390000
N       -2.65830000      -1.82990000       0.95750000
C       -4.00480000      -2.33110000       0.76610000
C       -1.71810000      -1.71620000      -0.15100000
C       -1.92980000      -0.53880000      -1.10330000
C       -3.23720000       0.01080000      -1.63490000
H        1.04400000       1.87360000       0.51520000
H       -0.28440000       1.90600000      -0.67830000
H       -0.63610000       2.11890000       1.05820000
H       -1.99490000      -0.36090000       2.38460000
H       -3.27560000       0.24930000       1.29720000
H       -4.63720000      -1.73500000       0.08780000
H       -3.95040000      -3.34850000       0.36450000
H       -4.51130000      -2.38680000       1.73630000
H       -1.08450000      -2.55540000      -0.42130000
H       -1.12530000      -0.53840000      -1.83950000
H       -3.97570000       0.16670000      -0.84570000
H       -3.07530000       0.97860000      -2.12330000
H       -3.68190000      -0.66300000      -2.37530000
