19
Properties=species:S:1:pos:R:3 gdb_92189=T pbc="F F F"
O        0.07930000       1.38400000      -0.12780000
C        0.02090000      -0.02630000      -0.00360000
C        0.70650000      -0.52290000       1.30200000
C       -0.38340000      -0.60610000       2.36280000
O       -1.20090000       0.61430000       2.24360000
C       -2.08960000      -0.13680000       1.39180000
C       -1.59190000      -1.49880000       1.90330000
C       -1.48340000      -2.01790000       0.45750000
C       -1.43590000      -0.52630000       0.00530000
H       -0.30980000       1.72520000       0.68910000
H        0.54220000      -0.42400000      -0.88040000
H        1.18560000      -1.49910000       1.16900000
H        1.48380000       0.19220000       1.58620000
H       -0.02200000      -0.73990000       3.38470000
H       -3.11690000       0.22950000       1.40230000
H       -2.08020000      -2.07700000       2.68720000
H       -0.64250000      -2.66010000       0.18010000
H       -2.41240000      -2.51080000       0.15760000
H       -1.96300000      -0.23720000      -0.90450000
