22
Properties=species:S:1:pos:R:3 gdb_6899=T pbc="F F F"
C        0.28390000       1.19650000       0.27540000
O       -0.34040000       0.06080000      -0.28910000
C        0.42960000      -0.54390000      -1.28200000
C        1.40770000      -1.64680000      -0.90870000
C        1.64770000      -2.02860000       0.53680000
C        0.10460000      -1.96860000      -1.63860000
C       -1.02380000      -2.66860000      -0.90410000
C        0.21630000      -2.35450000      -3.10270000
H        1.23770000       0.94300000       0.75890000
H        0.47650000       1.96850000      -0.48530000
H       -0.40080000       1.60250000       1.02400000
H        0.70700000       0.13660000      -2.09050000
H        2.29740000      -1.70230000      -1.53280000
H        0.80670000      -1.74370000       1.17270000
H        1.80320000      -3.10770000       0.64610000
H        2.54130000      -1.52810000       0.92590000
H       -1.16180000      -2.28380000       0.10640000
H       -1.96940000      -2.52540000      -1.43960000
H       -0.83940000      -3.74770000      -0.84430000
H        0.42410000      -3.42600000      -3.21010000
H       -0.71560000      -2.14090000      -3.63990000
H        1.02290000      -1.80990000      -3.60390000
