19
Properties=species:S:1:pos:R:3 gdb_69540=T pbc="F F F"
C       -0.03200000       1.47360000       0.03710000
C        0.07500000      -0.01860000      -0.00740000
O       -0.80480000      -0.79660000       0.83200000
C        0.61930000      -0.92380000       1.00060000
C        1.30190000      -1.98180000       0.08570000
C        2.20810000      -3.01470000       0.69040000
C        0.22150000      -2.25870000      -0.99090000
C        0.56000000      -0.78350000      -1.27590000
O        1.94980000      -1.07180000      -0.89290000
H        0.88350000       1.92730000      -0.35630000
H       -0.87300000       1.82620000      -0.57040000
H       -0.18400000       1.81950000       1.06250000
H        1.02800000      -0.63390000       1.96360000
H        1.63700000      -3.68070000       1.34520000
H        2.68710000      -3.61490000      -0.08740000
H        2.99170000      -2.53780000       1.28900000
H        0.61600000      -2.90840000      -1.77230000
H       -0.78580000      -2.53240000      -0.68420000
H        0.46010000      -0.30450000      -2.24950000
