23
Properties=species:S:1:pos:R:3 gdb_118267=T pbc="F F F"
C        0.06850000       1.55810000       0.09610000
C        0.03440000       0.02890000       0.03800000
C        0.68860000      -0.53480000      -1.22730000
C        0.70610000      -2.06280000      -1.28390000
C        1.26030000      -2.58670000      -2.61150000
O        1.49380000      -2.49920000      -0.17520000
C        1.28910000      -3.84570000       0.20160000
C        1.99520000      -4.12000000       1.44750000
C        2.56920000      -4.37360000       2.47130000
H        1.09850000       1.93140000       0.07970000
H       -0.45630000       2.00300000      -0.75730000
H       -0.40540000       1.93260000       1.00890000
H        0.54290000      -0.39170000       0.91120000
H       -1.00720000      -0.31650000       0.09020000
H        0.16580000      -0.16150000      -2.11730000
H        1.72490000      -0.17900000      -1.29980000
H       -0.32500000      -2.43640000      -1.15200000
H        1.26370000      -3.68000000      -2.64990000
H        0.64870000      -2.23050000      -3.44660000
H        2.28660000      -2.23590000      -2.75870000
H        0.21250000      -4.04870000       0.33600000
H        1.64550000      -4.54180000      -0.57450000
H        3.07820000      -4.59100000       3.37750000
