16
Properties=species:S:1:pos:R:3 gdb_131060=T pbc="F F F"
O        0.77880000       0.72320000       1.39620000
C        0.40540000       1.39130000       0.45290000
N        1.12690000       1.61970000      -0.67400000
C        2.49940000       1.14000000      -0.82590000
C        3.53080000       2.08970000      -0.28960000
N        4.32270000       2.76410000      -1.12260000
N        5.09870000       3.51080000      -0.31470000
C        4.82370000       3.33260000       1.00150000
C        3.80330000       2.41050000       1.06210000
H       -0.59120000       1.87430000       0.41220000
H        0.78030000       2.29780000      -1.33400000
H        2.55220000       0.18590000      -0.29630000
H        2.69290000       0.96440000      -1.88670000
H        5.79740000       4.10670000      -0.72450000
H        5.36660000       3.86050000       1.76970000
H        3.31130000       2.01680000       1.93600000
