16
Properties=species:S:1:pos:R:3 gdb_14073=T pbc="F F F"
C       -0.06580000       1.53620000      -0.06650000
C       -0.01400000       0.03340000       0.05240000
N        1.29570000      -0.60600000      -0.17000000
C        0.69850000      -0.65190000       1.15470000
C        1.32250000      -0.15880000       2.47460000
N        0.77810000      -1.39010000       3.07070000
C        0.24780000      -1.90000000       1.90650000
O       -0.31490000      -2.92480000       1.62240000
H        0.85350000       1.98610000       0.31760000
H       -0.17540000       1.83600000      -1.11390000
H       -0.91590000       1.94220000       0.49190000
H       -0.88750000      -0.49850000      -0.32280000
H        1.18550000      -1.51370000      -0.61920000
H        2.41520000      -0.10800000       2.46400000
H        0.90420000       0.76360000       2.88940000
H        0.83470000      -1.76770000       4.00340000
