21
Properties=species:S:1:pos:R:3 gdb_106072=T pbc="F F F"
C        0.08290000       1.47930000       0.47170000
C       -0.00230000      -0.01170000       0.11760000
C        0.68140000      -0.34540000      -1.17660000
C        1.03990000      -1.66010000      -1.81170000
C        0.00350000      -1.44900000      -2.97720000
C        0.23370000       0.02470000      -2.61230000
C        1.20940000       0.66420000      -3.28840000
C        2.51700000       0.56750000      -2.50700000
C        2.11840000      -0.53450000      -1.50760000
H        1.12380000       1.79480000       0.59820000
H       -0.35640000       2.09260000      -0.32150000
H       -0.45040000       1.69610000       1.40250000
H        0.44570000      -0.61120000       0.92040000
H       -1.05710000      -0.31260000       0.06220000
H        1.15460000      -2.60670000      -1.28610000
H        0.25810000      -1.74910000      -3.99790000
H       -0.95460000      -1.89320000      -2.68260000
H        1.23240000       0.69390000      -4.37490000
H        3.31220000       0.28360000      -3.20780000
H        2.87000000       1.46300000      -1.97490000
H        2.81860000      -0.83890000      -0.72980000
