21
Properties=species:S:1:pos:R:3 gdb_116215=T pbc="F F F"
C       -0.29570000       1.52980000       0.02700000
O       -0.13200000       0.16980000       0.36100000
C       -1.23650000      -0.64070000       0.01730000
C       -1.37100000      -0.96190000      -1.48710000
C       -2.08080000      -2.32690000      -1.50620000
C       -1.40930000      -3.09260000      -0.35010000
C       -1.12270000      -2.01530000       0.69280000
C       -0.31680000      -2.23160000       1.89570000
O       -1.74310000      -2.13620000       1.97940000
H        0.58000000       2.06270000       0.40540000
H       -0.36050000       1.68870000      -1.05950000
H       -1.19910000       1.95460000       0.49200000
H       -2.16380000      -0.16980000       0.38390000
H       -1.90420000      -0.19040000      -2.04830000
H       -0.36200000      -1.05030000      -1.90850000
H       -3.14960000      -2.19540000      -1.29980000
H       -1.99640000      -2.83810000      -2.46850000
H       -2.02100000      -3.89350000       0.07140000
H       -0.46710000      -3.53560000      -0.69430000
H        0.09690000      -3.22150000       2.08990000
H        0.23470000      -1.39640000       2.31990000
