21
Properties=species:S:1:pos:R:3 gdb_113266=T pbc="F F F"
C       -0.18220000       1.55140000      -0.52530000
C       -0.03130000       0.19370000       0.16970000
C       -1.34630000      -0.54720000       0.29780000
C       -1.90290000      -1.33910000      -0.87420000
C       -1.39820000      -2.05120000       0.35750000
O       -0.16120000      -2.71750000       0.28020000
C       -2.38540000      -2.72230000       1.30630000
C       -2.85030000      -4.06790000       0.79520000
O       -4.00170000      -4.40340000       0.68580000
H        0.78120000       2.06560000      -0.59830000
H       -0.57960000       1.43430000      -1.53910000
H       -0.86800000       2.20620000       0.02360000
H        0.68050000      -0.43450000      -0.37410000
H        0.39680000       0.33860000       1.16980000
H       -2.08950000      -0.03800000       0.90810000
H       -2.96970000      -1.32350000      -1.07120000
H       -1.28090000      -1.39890000      -1.76250000
H       -0.19960000      -3.35000000      -0.44390000
H       -1.87480000      -2.88190000       2.26640000
H       -3.26420000      -2.09560000       1.47820000
H       -2.02560000      -4.76200000       0.50970000
