19
Properties=species:S:1:pos:R:3 gdb_103364=T pbc="F F F"
O        0.77140000      -0.34600000       1.21340000
C        0.13150000      -0.02080000      -0.00590000
C       -1.29460000      -0.56830000      -0.02990000
O       -1.89390000       0.04360000       1.08400000
C       -2.06900000      -0.56530000      -1.41540000
C       -1.26020000      -1.86570000      -1.74810000
C       -1.47480000      -2.13420000      -0.22010000
C       -3.00600000      -2.22370000      -0.19470000
C       -3.39290000      -1.20130000      -0.97180000
H        0.14500000      -0.09940000       1.90470000
H        0.07350000       1.07020000      -0.15200000
H        0.75000000      -0.43250000      -0.80370000
H       -2.78620000      -0.32000000       1.15850000
H       -2.09550000       0.30420000      -2.07180000
H       -1.74770000      -2.56650000      -2.42710000
H       -0.22390000      -1.70410000      -2.04870000
H       -0.88770000      -2.85580000       0.34530000
H       -3.60100000      -2.95410000       0.33560000
H       -4.38670000      -0.87210000      -1.24110000
