17
Properties=species:S:1:pos:R:3 gdb_38822=T pbc="F F F"
C        0.00840000       1.55700000       0.02770000
C        1.54490000       1.54290000       0.03510000
N        2.07570000       0.84570000      -1.13760000
C        1.56910000       0.03930000      -0.04700000
C        2.33710000      -1.04360000       0.64020000
N        1.60480000      -1.59810000       1.77700000
C        0.37850000      -1.33410000       1.92030000
O       -0.47310000      -0.58140000       1.16820000
C        0.03700000      -0.00040000      -0.03450000
H       -0.43970000       1.88680000       0.96690000
H       -0.46460000       2.08480000      -0.80670000
H        2.20370000       2.22540000       0.55950000
H        1.45420000       0.88220000      -1.94500000
H        2.55020000      -1.86210000      -0.06170000
H        3.31070000      -0.68200000       0.98810000
H       -0.17320000      -1.73670000       2.76790000
H       -0.46200000      -0.49070000      -0.87850000
