18
Properties=species:S:1:pos:R:3 gdb_61996=T pbc="F F F"
C        1.83560000       1.31880000       0.29210000
C        0.72800000       0.43580000      -0.29840000
N        1.30560000      -0.47730000      -1.30610000
H        1.43510000       0.50340000      -2.97200000
H        1.96210000      -1.10070000      -0.84890000
C        0.32280000      -1.23960000      -2.08060000
C       -0.09000000      -0.48290000      -3.35330000
O        0.75380000       0.51050000      -3.67790000
O       -1.05520000      -0.76780000      -4.00640000
C       -0.00740000      -0.27590000       0.75620000
C       -0.58480000      -0.88810000       1.61520000
H        2.57870000       0.70700000       0.81340000
H        2.33590000       1.87430000      -0.50510000
H        1.41660000       2.02520000       1.01210000
H        0.02130000       1.08130000      -0.83620000
H        0.77730000      -2.18050000      -2.40710000
H       -0.58220000      -1.49840000      -1.51870000
H       -1.10720000      -1.41900000       2.37270000
