23
Properties=species:S:1:pos:R:3 gdb_95770=T pbc="F F F"
C        0.12200000       1.54950000       0.03160000
C        0.01720000       0.04730000      -0.00130000
C        0.01330000      -0.62560000      -1.15560000
C       -0.09190000      -2.12340000      -1.30800000
C       -1.37180000      -2.74910000      -0.71760000
O       -1.51500000      -4.10020000      -1.15170000
C       -1.37490000      -2.82100000       0.80940000
C       -1.35820000      -1.48040000       1.55190000
C       -0.08230000      -0.63970000       1.34890000
H        1.00590000       1.87020000       0.59890000
H        0.18840000       1.97770000      -0.97220000
H       -0.74500000       1.99550000       0.53710000
H        0.08360000      -0.05460000      -2.07900000
H       -0.06030000      -2.37020000      -2.37640000
H        0.77200000      -2.63220000      -0.85650000
H       -2.23550000      -2.14950000      -1.05020000
H       -1.52090000      -4.10360000      -2.11400000
H       -2.26380000      -3.38930000       1.10490000
H       -0.50930000      -3.42330000       1.11720000
H       -2.23290000      -0.88200000       1.26640000
H       -1.46630000      -1.69110000       2.62270000
H        0.79350000      -1.28720000       1.50280000
H       -0.03410000       0.11980000       2.13670000
