17
Properties=species:S:1:pos:R:3 gdb_28473=T pbc="F F F"
C       -0.06200000       1.50280000      -0.02980000
C       -0.00480000      -0.00040000       0.00920000
C        0.05030000      -0.75940000      -1.14860000
N        0.09340000      -2.09730000      -1.20040000
C        0.08130000      -2.73280000      -0.03420000
O        0.12530000      -4.08430000      -0.06920000
C        0.03080000      -2.10140000       1.20520000
C       -0.01500000      -0.70790000       1.23590000
N       -0.12230000      -0.02810000       2.43530000
H        0.80660000       1.96630000       0.45950000
H       -0.07680000       1.86230000      -1.06190000
H       -0.95790000       1.89140000       0.47080000
H        0.06040000      -0.25140000      -2.11150000
H        0.15720000      -4.31430000      -1.00820000
H        0.02550000      -2.69060000       2.11490000
H        0.20070000       0.92630000       2.44390000
H        0.14000000      -0.54250000       3.26200000
