14
Properties=species:S:1:pos:R:3 gdb_132006=T pbc="F F F"
C        0.04680000       1.50680000       0.03880000
C       -0.04680000       0.02290000       0.07130000
C       -1.13920000      -0.72610000      -0.14540000
F       -2.29810000      -0.13810000      -0.42490000
C       -1.10780000      -2.18490000      -0.08600000
N       -2.15140000      -2.88560000      -0.29450000
N        0.16270000      -2.73050000       0.21770000
C        1.14520000      -1.95070000       0.40870000
O        1.14980000      -0.59970000       0.36050000
H        0.77020000       1.83100000      -0.71730000
H       -0.92740000       1.93640000      -0.19370000
H        0.38640000       1.89290000       1.00610000
H       -1.90600000      -3.87370000      -0.20410000
H        2.13790000      -2.32340000       0.64390000
