21
Properties=species:S:1:pos:R:3 gdb_58405=T pbc="F F F"
C       -0.00370000       1.57410000      -0.15090000
C        0.00400000       0.04230000      -0.05480000
C        0.58500000      -0.56550000      -1.34200000
C        0.77650000      -0.47530000       1.18660000
C        0.22610000       0.07340000       2.52460000
C        1.06250000      -0.33470000       3.72220000
O        0.61740000      -0.80020000       4.73820000
C        0.70770000      -1.99410000       1.24200000
O        1.65730000      -2.72940000       1.31190000
H        1.01770000       1.97180000      -0.17430000
H       -0.50150000       1.89040000      -1.07290000
H       -0.53290000       2.04690000       0.68070000
H       -1.03790000      -0.29660000       0.04240000
H        1.62550000      -0.25230000      -1.48530000
H        0.57110000      -1.65970000      -1.32810000
H        0.01380000      -0.23670000      -2.21540000
H        1.83640000      -0.20670000       1.09330000
H        0.24260000       1.17020000       2.49220000
H       -0.80870000      -0.23950000       2.69830000
H        2.15540000      -0.15220000       3.60270000
H       -0.33330000      -2.39820000       1.23260000
