14
Properties=species:S:1:pos:R:3 gdb_27109=T pbc="F F F"
C       -0.16260000       1.35970000      -0.12830000
C        0.07400000      -0.10920000      -0.05770000
C        0.45330000      -0.97260000      -1.03010000
O        0.79010000      -0.82490000      -2.33190000
C       -0.20530000      -1.02820000      -3.26560000
O        0.00640000      -0.93810000      -4.42830000
O        0.56540000      -2.23040000      -0.50520000
C        0.23650000      -2.05590000       0.79730000
N       -0.06090000      -0.84300000       1.12300000
H        0.48910000       1.88810000       0.57460000
H        0.03610000       1.73810000      -1.13380000
H       -1.19580000       1.60390000       0.13920000
H       -1.17180000      -1.26210000      -2.78650000
H        0.25420000      -2.93550000       1.42130000
