21
Properties=species:S:1:pos:R:3 gdb_91263=T pbc="F F F"
C       -1.11850000       1.04140000      -0.04600000
C       -0.09410000      -0.08340000      -0.06150000
C        1.17170000       0.07080000      -0.94970000
C        2.04180000      -0.53510000       0.18870000
C        3.19920000       0.32090000       0.69100000
C        2.53800000       1.39590000       1.56270000
O        2.99080000       2.48230000       1.81290000
C        1.19380000       0.84980000       2.06930000
C        0.82570000      -0.34600000       1.17680000
H       -0.65300000       2.01510000       0.14070000
H       -1.63200000       1.10730000      -1.01160000
H       -1.88110000       0.88090000       0.72450000
H       -0.60110000      -1.02250000      -0.30900000
H        1.17470000      -0.45280000      -1.90880000
H        1.41890000       1.12190000      -1.13890000
H        2.31640000      -1.57520000       0.00730000
H        3.87360000      -0.25630000       1.33900000
H        3.81100000       0.77680000      -0.09170000
H        1.34870000       0.53190000       3.10800000
H        0.45400000       1.65330000       2.10440000
H        0.53930000      -1.21430000       1.77310000
