13
Properties=species:S:1:pos:R:3 gdb_26806=T pbc="F F F"
N        0.25410000       1.38560000      -0.11270000
C        0.03300000       0.02070000      -0.03830000
C       -1.07890000      -0.77370000      -0.05300000
O       -2.36720000      -0.35680000      -0.05420000
N       -0.71320000      -2.08790000      -0.07610000
C        0.59560000      -2.07350000      -0.06380000
O        1.11350000      -0.80570000      -0.05290000
C        1.48950000      -3.15530000      -0.04270000
C        2.26020000      -4.08070000      -0.02890000
H        0.88360000       1.73310000       0.60280000
H       -0.61890000       1.89670000      -0.08590000
H       -2.91770000      -1.14840000      -0.06940000
H        2.93510000      -4.90050000      -0.01660000
