21
Properties=species:S:1:pos:R:3 gdb_120886=T pbc="F F F"
O       -0.05940000       1.45940000      -0.08840000
C        0.00360000       0.04660000       0.04240000
C       -1.40720000      -0.50550000      -0.12000000
C       -1.46850000      -2.02360000       0.01530000
C       -1.25750000      -2.68040000       1.43020000
C       -2.62000000      -3.36900000       1.27900000
O       -2.86460000      -4.68760000       1.62380000
C       -3.71520000      -2.35820000       1.10560000
C       -2.83660000      -2.71870000      -0.07760000
H        0.82910000       1.81090000       0.01870000
H        0.66470000      -0.39480000      -0.72200000
H        0.40840000      -0.24340000       1.02600000
H       -2.05390000      -0.02290000       0.62200000
H       -1.78580000      -0.20530000      -1.10500000
H       -0.77550000      -2.47880000      -0.70080000
H       -0.43170000      -3.39490000       1.43970000
H       -1.15030000      -1.99880000       2.28200000
H       -3.20580000      -4.70590000       2.52460000
H       -4.70980000      -2.79070000       1.05520000
H       -3.67230000      -1.37750000       1.57370000
H       -3.26590000      -3.13890000      -0.97920000
