16
Properties=species:S:1:pos:R:3 gdb_9235=T pbc="F F F"
C        0.04420000       1.10670000       0.38010000
O       -0.06000000      -0.20920000      -0.16320000
C        0.58790000      -0.43230000      -1.32360000
N        0.51750000      -1.75820000      -1.66840000
N        1.20470000       0.51740000      -1.92550000
C        1.95260000       0.16130000      -3.12830000
C        0.95550000      -0.02520000      -4.25860000
O        0.47600000      -1.09740000      -4.55590000
H        1.08950000       1.37420000       0.55450000
H       -0.39440000       1.84350000      -0.29750000
H       -0.50670000       1.07680000       1.32120000
H       -0.14060000      -2.30110000      -1.13130000
H        0.54410000      -1.96400000      -2.65960000
H        2.63580000       0.98330000      -3.36600000
H        2.53520000      -0.76480000      -3.01630000
H        0.61400000       0.90360000      -4.76260000
