18
Properties=species:S:1:pos:R:3 gdb_65051=T pbc="F F F"
C        0.05560000       0.75390000      -1.32240000
C        0.00600000      -0.02480000      -0.02450000
C        1.24470000      -0.64100000       0.51540000
N        0.64610000       0.53650000       1.17280000
C       -1.32010000      -0.70850000       0.23130000
C       -1.93320000      -0.68940000       1.57410000
O       -2.40630000       0.18360000       0.55030000
C       -1.64620000      -1.77870000      -0.68470000
C       -1.88460000      -2.66780000      -1.45800000
H        1.04840000       1.18670000      -1.48030000
H       -0.17490000       0.10720000      -2.17450000
H       -0.68070000       1.56400000      -1.30570000
H        1.19100000      -1.55910000       1.09370000
H        2.16200000      -0.51600000      -0.05400000
H        1.15690000       1.37960000       0.92290000
H       -2.61210000      -1.49460000       1.84940000
H       -1.37900000      -0.21040000       2.37640000
H       -2.10800000      -3.45360000      -2.13680000
