17
Properties=species:S:1:pos:R:3 gdb_54633=T pbc="F F F"
C       -0.19420000       1.48200000      -0.00720000
C       -0.11180000      -0.03320000       0.02640000
O       -0.12440000      -0.64750000       1.07450000
C       -0.00620000      -0.74160000      -1.27960000
C       -0.00600000      -2.08110000      -1.38870000
C        0.02350000      -2.49400000      -2.81780000
O       -1.12660000      -2.01580000      -3.55620000
C        0.07350000      -1.24900000      -3.61110000
C        0.09990000      -0.07130000      -2.64450000
H        0.66930000       1.90720000      -0.53120000
H       -1.08750000       1.80450000      -0.55460000
H       -0.23230000       1.86650000       1.01220000
H       -0.05030000      -2.75960000      -0.54680000
H        0.41780000      -3.45010000      -3.14570000
H        0.54420000      -1.18260000      -4.58810000
H       -0.72670000       0.62130000      -2.84040000
H        1.03000000       0.50170000      -2.74770000
