13
Properties=species:S:1:pos:R:3 gdb_12162=T pbc="F F F"
N       -0.02030000       1.32520000       0.32370000
C        0.05180000      -0.05150000      -0.08270000
C       -1.28700000      -0.82930000      -0.28430000
O       -0.84700000      -1.21800000      -1.63760000
C        0.29120000      -0.45190000      -1.55540000
O        1.07680000      -0.22170000      -2.41650000
C       -1.56800000      -1.95830000       0.57130000
C       -1.79200000      -2.88370000       1.30410000
H        0.89620000       1.67560000       0.57700000
H       -0.37230000       1.91700000      -0.42220000
H        0.72440000      -0.59830000       0.58190000
H       -2.14730000      -0.15860000      -0.36420000
H       -1.99620000      -3.70490000       1.94650000
