18
Properties=species:S:1:pos:R:3 gdb_67566=T pbc="F F F"
C        0.02110000       1.51400000      -0.02230000
C        0.04270000       0.00700000      -0.04720000
C        0.52610000      -0.75010000      -1.27370000
N        1.74870000      -1.55650000      -1.01380000
C        0.39990000      -2.16550000      -0.85780000
C       -0.14360000      -2.02920000       0.54880000
C        0.52320000      -0.79210000       1.21090000
O       -0.71920000      -0.46620000       1.93650000
C       -1.14760000      -0.82400000       0.58620000
H        1.02760000       1.92210000      -0.16380000
H       -0.61520000       1.91710000      -0.81850000
H       -0.36440000       1.86290000       0.93930000
H        0.31200000      -0.40160000      -2.27810000
H        2.13540000      -1.85460000      -1.90850000
H        0.08200000      -2.95570000      -1.52760000
H       -0.35110000      -2.89900000       1.16890000
H        1.46400000      -0.72120000       1.75300000
H       -2.21730000      -0.79360000       0.36880000
