17
Properties=species:S:1:pos:R:3 gdb_69071=T pbc="F F F"
C       -0.08660000       1.55850000      -0.01100000
C        0.13110000       0.07380000      -0.03220000
O       -0.65570000      -0.70370000       0.90080000
C        0.77560000      -0.72730000       1.05050000
C        1.43300000      -1.95030000       0.40500000
C        1.08310000      -1.79660000      -1.05900000
C        0.39860000      -0.67790000      -1.30140000
C        1.30970000      -0.17290000       2.26020000
C        1.78500000       0.27180000       3.27150000
H        0.71600000       2.07270000      -0.54950000
H       -1.03560000       1.81210000      -0.49560000
H       -0.11360000       1.92680000       1.01660000
H        2.51630000      -1.94550000       0.57360000
H        1.04390000      -2.88080000       0.83450000
H        1.35030000      -2.54400000      -1.79730000
H        0.04420000      -0.33990000      -2.26770000
H        2.19420000       0.66680000       4.16830000
