18
Properties=species:S:1:pos:R:3 gdb_90901=T pbc="F F F"
O       -0.11920000       1.45270000      -0.01810000
C       -0.00520000       0.03860000       0.02800000
C        0.63330000      -0.56110000       1.30590000
C       -0.21610000      -1.80030000       1.57230000
C       -1.23400000      -2.00380000       0.51610000
N       -1.66220000      -1.64300000       1.91100000
C       -2.10260000      -0.29540000       1.40090000
C       -1.41890000      -0.54740000       0.03040000
O       -2.13710000      -0.31880000      -1.14190000
H        0.75190000       1.83180000      -0.16640000
H        0.51510000      -0.33500000      -0.86760000
H        1.68260000      -0.83340000       1.15830000
H        0.59180000       0.15830000       2.13070000
H        0.22610000      -2.64910000       2.08270000
H       -1.51790000      -2.92170000       0.01610000
H       -3.19030000      -0.30630000       1.30650000
H       -1.78790000       0.56610000       1.99790000
H       -1.99960000       0.60920000      -1.37040000
