11
Properties=species:S:1:pos:R:3 gdb_1946=T pbc="F F F"
O       -0.39350000       0.16050000       0.04370000
C       -0.05130000       1.26420000      -0.27930000
C        1.28610000       1.88170000       0.06390000
C        1.31160000       2.70240000       1.38010000
C        2.29910000       1.61580000       1.81700000
O        2.95080000       1.35450000       2.77100000
O        2.23130000       0.93250000       0.62500000
H       -0.71860000       1.95150000      -0.84840000
H        1.70980000       2.39400000      -0.80570000
H        1.73600000       3.70470000       1.31830000
H        0.38400000       2.72270000       1.95470000
