15
Properties=species:S:1:pos:R:3 gdb_28393=T pbc="F F F"
N        0.11200000       1.38370000      -0.20740000
C       -0.02950000       0.01010000       0.00470000
C       -1.17850000      -0.70700000      -0.12180000
N       -1.18410000      -2.07940000       0.01610000
C       -0.08970000      -2.68650000       0.30630000
O       -0.06240000      -4.03040000       0.45510000
C        1.21730000      -2.03800000       0.49510000
N        2.34660000      -2.57020000       0.77860000
N        1.13000000      -0.66240000       0.30310000
H        0.59880000       1.86150000       0.54340000
H       -0.77710000       1.83490000      -0.37650000
H       -2.12450000      -0.22670000      -0.33430000
H       -0.96640000      -4.33650000       0.29980000
H        2.23260000      -3.57660000       0.87390000
H        2.01090000      -0.16810000       0.31820000
