19
Properties=species:S:1:pos:R:3 gdb_62167=T pbc="F F F"
C       -0.22440000       1.37680000       0.02360000
C       -0.04000000      -0.14380000       0.10070000
C       -1.38100000      -0.87860000       0.16270000
O       -2.09730000      -0.50240000       1.34320000
C       -3.35580000      -0.03720000       1.21580000
O       -4.02410000       0.28000000       2.15170000
C        0.78170000      -0.68350000      -1.08780000
C        2.21800000      -0.20670000      -1.04980000
O        2.78740000       0.34530000      -1.95390000
H        0.74030000       1.89220000       0.00340000
H       -0.76640000       1.65970000      -0.88660000
H       -0.78420000       1.74680000       0.88580000
H        0.49780000      -0.38570000       1.02770000
H       -1.98420000      -0.65740000      -0.72900000
H       -1.22470000      -1.96200000       0.20700000
H       -3.68790000       0.01530000       0.16020000
H        0.81010000      -1.78260000      -1.04300000
H        0.34330000      -0.39400000      -2.04830000
H        2.73840000      -0.41410000      -0.08450000
