18
Properties=species:S:1:pos:R:3 gdb_31033=T pbc="F F F"
C       -0.37940000       1.53390000       0.12630000
C        0.10740000       0.08720000      -0.05350000
C        0.84150000      -0.42810000       1.14020000
C        2.12740000      -0.83770000       1.22570000
N        3.16110000      -0.93840000       0.30450000
O        2.34670000      -1.22370000       2.56860000
C        1.15960000      -1.00500000       3.16040000
N        1.09110000      -1.22920000       4.51510000
N        0.22270000      -0.54440000       2.39050000
H        0.46570000       2.21760000       0.25630000
H       -0.95270000       1.86340000      -0.74590000
H       -1.01700000       1.61640000       1.01060000
H       -0.75900000      -0.55950000      -0.24370000
H        0.76550000       0.00980000      -0.92440000
H        3.96670000      -0.36970000       0.54490000
H        3.47620000      -1.89200000       0.15690000
H        1.69120000      -1.96860000       4.85050000
H        0.14030000      -1.30370000       4.84610000
