18
Properties=species:S:1:pos:R:3 gdb_112364=T pbc="F F F"
C        0.06920000       1.56170000       0.02840000
C        0.03770000       0.03320000       0.08860000
C       -1.37740000      -0.54390000      -0.02290000
N       -2.00740000      -0.33940000      -1.32260000
C       -2.51670000      -1.49350000      -1.86570000
O       -3.17700000      -1.62860000      -2.86690000
N       -2.09580000      -2.52340000      -1.00780000
C       -1.40020000      -2.07030000       0.09840000
N       -0.85730000      -2.69790000       1.05820000
H        1.09120000       1.93480000       0.13980000
H       -0.31140000       1.93570000      -0.92850000
H       -0.53510000       2.00470000       0.82830000
H        0.65010000      -0.39110000      -0.71520000
H        0.45620000      -0.32620000       1.03380000
H       -1.99850000      -0.12590000       0.78290000
H       -2.38030000       0.54390000      -1.62500000
H       -2.28190000      -3.48810000      -1.22710000
H       -0.97030000      -3.70840000       0.96920000
