15
Properties=species:S:1:pos:R:3 gdb_77270=T pbc="F F F"
N        0.10130000       1.45650000       0.10430000
C        0.07950000       0.04030000      -0.00260000
C       -1.19470000      -0.68740000       0.24110000
O       -2.30680000       0.12390000       0.49980000
C       -3.52820000      -0.35250000       0.11850000
O       -4.53240000       0.23390000       0.36380000
C       -0.61110000      -0.72730000      -1.17500000
C       -1.23080000       0.03350000      -2.21270000
N       -1.72260000       0.66670000      -3.04770000
H        0.66080000       1.88480000      -0.62470000
H       -0.83290000       1.84820000       0.06960000
H        0.98120000      -0.45070000       0.35280000
H       -1.17860000      -1.61500000       0.80610000
H       -3.46000000      -1.31500000      -0.41870000
H       -0.16950000      -1.66710000      -1.48990000
