19
Properties=species:S:1:pos:R:3 gdb_38547=T pbc="F F F"
C       -0.16530000       1.40780000       0.04720000
C        1.41060000       1.33010000       0.05030000
C        2.03020000       0.55070000       1.25520000
C        2.39040000      -0.87060000       0.77550000
C        1.29050000      -1.80190000       0.22690000
C       -0.04990000      -1.15450000       0.26710000
C       -0.02670000      -0.01920000      -0.44760000
C        1.34330000       0.22610000      -1.07410000
C        2.18100000      -0.97750000      -0.70740000
H       -0.67890000       1.57580000       0.99640000
H       -0.51250000       2.12780000      -0.70100000
H        1.92980000       2.26650000      -0.17680000
H        2.94710000       1.04880000       1.58560000
H        1.35160000       0.53810000       2.11510000
H        3.24400000      -1.35880000       1.23380000
H        1.43990000      -2.86990000       0.34940000
H       -0.77800000      -1.38430000       1.03830000
H        1.36810000       0.58850000      -2.10250000
H        2.89180000      -1.43480000      -1.38270000
