14
Properties=species:S:1:pos:R:3 gdb_129373=T pbc="F F F"
N       -0.05370000       1.34850000      -0.17900000
C        0.03520000       0.01540000      -0.00480000
N        1.25090000      -0.55600000       0.12600000
H        1.28770000      -1.56500000       0.13610000
H        2.07700000      -0.06520000      -0.17270000
C       -1.13260000      -0.74510000       0.03540000
C       -1.34460000      -2.13620000       0.08450000
O       -0.37660000      -3.08090000       0.12010000
N       -2.63280000      -2.37800000       0.09170000
N       -3.25250000      -1.14100000       0.04700000
N       -2.38880000      -0.17610000       0.01520000
H        0.70190000       1.95530000       0.09160000
H       -0.99590000       1.71580000      -0.15180000
H       -0.82050000      -3.93930000       0.14260000
