21
Properties=species:S:1:pos:R:3 gdb_75046=T pbc="F F F"
C       -0.04780000       1.60490000       0.05370000
C        0.03520000       0.09960000      -0.05480000
C        0.01140000      -0.49460000      -1.26640000
C       -0.10210000      -1.89750000      -1.67340000
C        0.41500000      -3.05890000      -1.24150000
C        1.41920000      -3.38830000      -0.17420000
C        1.94180000      -2.20310000       0.65220000
C        0.89060000      -1.61490000       1.54880000
C        0.07240000      -0.60840000       1.22780000
H        0.83530000       2.01690000       0.55760000
H       -0.13540000       2.07950000      -0.92690000
H       -0.91530000       1.90410000       0.65640000
H       -0.06560000       0.18490000      -2.11600000
H       -0.73180000      -1.99440000      -2.55930000
H        0.11070000      -3.93690000      -1.81130000
H        0.98780000      -4.14050000       0.50110000
H        2.26500000      -3.89970000      -0.66000000
H        2.78580000      -2.54910000       1.26000000
H        2.32540000      -1.43780000      -0.03030000
H        0.80460000      -2.05160000       2.54230000
H       -0.59870000      -0.22110000       1.99470000
