22
Properties=species:S:1:pos:R:3 gdb_122840=T pbc="F F F"
C       -0.14780000       1.53490000      -0.02810000
C       -0.05170000       0.01860000      -0.04160000
O       -1.35600000      -0.51710000       0.04760000
C       -1.37590000      -1.92790000       0.05140000
C       -2.82690000      -2.37550000       0.17580000
C       -2.93870000      -3.89130000       0.30070000
O       -2.07350000      -4.56790000       0.83130000
N       -4.08790000      -4.42210000      -0.21020000
C       -4.39950000      -5.83560000      -0.13220000
H        0.84870000       1.98140000      -0.09650000
H       -0.74610000       1.88920000      -0.87240000
H       -0.62100000       1.88100000       0.89530000
H        0.44020000      -0.32960000      -0.96610000
H        0.56420000      -0.33850000       0.80120000
H       -0.92950000      -2.32550000      -0.87550000
H       -0.79340000      -2.33630000       0.88900000
H       -3.25460000      -1.92350000       1.07930000
H       -3.40960000      -1.99920000      -0.67200000
H       -4.75570000      -3.80100000      -0.63520000
H       -4.53660000      -6.26950000      -1.12890000
H       -3.55630000      -6.32480000       0.35670000
H       -5.30710000      -6.01510000       0.45540000
