11
Properties=species:S:1:pos:R:3 gdb_21367=T pbc="F F F"
N       -0.02140000       1.35810000       0.01000000
C        1.30150000       1.79530000      -0.00060000
C        2.12950000       0.71550000      -0.01450000
N        1.28930000      -0.39140000      -0.01240000
N        1.31890000      -1.75170000      -0.02000000
N        0.06630000      -2.10810000      -0.01010000
N       -0.80170000      -1.05860000       0.00440000
C       -0.00630000      -0.00450000       0.00240000
H       -0.84280000       1.93550000       0.02130000
H        1.54380000       2.84470000       0.00280000
H        3.20160000       0.64220000      -0.02540000
