20
Properties=species:S:1:pos:R:3 gdb_98310=T pbc="F F F"
C        0.23520000       1.37510000       0.14410000
O        0.04520000      -0.03340000      -0.00130000
C        0.60250000      -0.56090000      -1.12330000
O        1.19130000       0.10750000      -1.94860000
N        0.41250000      -1.91340000      -1.19410000
C       -0.33400000      -2.65800000      -0.19380000
C        0.88600000      -2.57490000      -2.38650000
C        1.68810000      -3.84810000      -2.34100000
C        0.27550000      -3.85160000      -2.89400000
H        1.29830000       1.62250000       0.20350000
H       -0.20220000       1.91650000      -0.69840000
H       -0.26940000       1.64470000       1.07280000
H       -1.37390000      -2.83010000      -0.50030000
H        0.13730000      -3.63050000      -0.02100000
H       -0.33410000      -2.10840000       0.74400000
H        1.18270000      -1.83940000      -3.12080000
H        2.52480000      -3.94370000      -3.02380000
H        1.84400000      -4.32830000      -1.38100000
H       -0.48470000      -4.34100000      -2.29630000
H        0.12610000      -3.95160000      -3.96340000
