18
Properties=species:S:1:pos:R:3 gdb_9957=T pbc="F F F"
C       -0.03540000       1.46640000      -0.03180000
C        0.02420000      -0.04340000       0.03240000
C        1.33690000      -0.79500000      -0.15200000
O        2.54260000      -0.07660000      -0.20930000
C        0.68180000      -0.75490000       1.20130000
O        1.34340000       0.01040000       2.17380000
C        0.06030000      -1.98020000       1.82490000
O        1.01990000      -2.75160000       2.51880000
H        0.77640000       1.92130000       0.53940000
H        0.01920000       1.82940000      -1.06490000
H       -0.97540000       1.83030000       0.39410000
H       -0.83900000      -0.55150000      -0.39220000
H        1.34170000      -1.72500000      -0.71780000
H        2.51200000       0.53130000      -0.95520000
H        2.18150000       0.28230000       1.77140000
H       -0.75960000      -1.66490000       2.49190000
H       -0.37300000      -2.61850000       1.04770000
H        1.51290000      -2.11890000       3.05570000
