15
Properties=species:S:1:pos:R:3 gdb_18893=T pbc="F F F"
O       -0.12160000       1.32110000      -0.10490000
C        0.03430000      -0.05550000      -0.06540000
C        1.11090000      -0.78860000      -0.84750000
C        0.73820000      -2.19320000      -0.44540000
C       -0.72820000      -2.31750000      -0.22400000
C       -1.23280000      -0.88980000       0.02060000
C       -0.27850000      -0.83960000       1.19020000
N        0.19440000      -2.25420000       0.95820000
H        0.58990000       1.72030000       0.40840000
H        1.02700000      -0.62730000      -1.92710000
H        2.12100000      -0.51140000      -0.52430000
H        1.33620000      -3.05140000      -0.72860000
H       -1.32900000      -3.19510000      -0.43320000
H       -2.22680000      -0.48460000      -0.09930000
H       -0.36860000      -0.43450000       2.18960000
