23
Properties=species:S:1:pos:R:3 gdb_116055=T pbc="F F F"
C       -0.02590000       1.43970000       0.02130000
O       -0.01250000       0.03500000       0.09580000
C       -1.29320000      -0.58760000       0.01540000
C       -1.75660000      -0.68010000      -1.44430000
C       -3.20540000      -1.16970000      -1.63720000
C       -3.43700000      -2.63690000      -1.36410000
C       -3.11670000      -3.28950000      -0.24670000
C       -2.45820000      -2.69520000       0.97600000
C       -1.14300000      -1.93430000       0.72500000
H        1.00310000       1.77930000       0.16660000
H       -0.37750000       1.81650000      -0.95090000
H       -0.65780000       1.88320000       0.80750000
H       -2.02270000       0.02410000       0.57770000
H       -1.67380000       0.31660000      -1.89230000
H       -1.06600000      -1.33210000      -1.99150000
H       -3.86900000      -0.56400000      -1.00080000
H       -3.50800000      -0.95100000      -2.66610000
H       -3.91960000      -3.19840000      -2.16100000
H       -3.35490000      -4.34950000      -0.19080000
H       -3.16350000      -2.02140000       1.48620000
H       -2.25340000      -3.49850000       1.69070000
H       -0.45220000      -2.56320000       0.15130000
H       -0.66100000      -1.73130000       1.68730000
