23
Properties=species:S:1:pos:R:3 gdb_58768=T pbc="F F F"
C        0.02810000       1.46110000      -0.25620000
C       -0.00600000      -0.03940000       0.07090000
C        0.74320000      -0.35840000       1.37270000
C       -1.42390000      -0.57020000       0.10940000
C       -1.76720000      -2.08330000       0.05530000
C       -3.01150000      -1.46960000      -0.61460000
C       -3.72570000      -0.73520000       0.53790000
C       -2.46600000      -0.02050000       1.12170000
O       -2.15690000      -0.41960000      -1.16050000
H        1.05830000       1.79480000      -0.41600000
H       -0.54720000       1.67450000      -1.16090000
H       -0.38910000       2.05880000       0.56150000
H        0.49390000      -0.57070000      -0.74980000
H        0.30310000       0.17000000       2.22550000
H        0.72660000      -1.43030000       1.59590000
H        1.79020000      -0.04870000       1.29750000
H       -1.13450000      -2.61380000      -0.65800000
H       -1.88190000      -2.64380000       0.98720000
H       -3.60930000      -1.99010000      -1.36280000
H       -4.47180000      -0.03270000       0.16090000
H       -4.21060000      -1.41540000       1.24370000
H       -2.24710000      -0.30490000       2.15420000
H       -2.54150000       1.06700000       1.06940000
