19
Properties=species:S:1:pos:R:3 gdb_69085=T pbc="F F F"
C       -0.05280000       1.53900000       0.02310000
C        0.05780000       0.03690000      -0.00490000
C       -0.77300000      -0.83150000       0.89730000
C        0.73450000      -0.77680000       1.10510000
C        1.50960000      -1.87510000       0.37750000
O        0.92990000      -1.95420000      -0.91730000
C        0.50760000      -0.64750000      -1.28820000
C        1.29820000      -0.18540000       2.27630000
C        1.79170000       0.30460000       3.25880000
H        0.85720000       2.00900000      -0.36620000
H       -0.89600000       1.88360000      -0.58600000
H       -0.20330000       1.90040000       1.04390000
H       -1.37890000      -0.33310000       1.64520000
H       -1.18530000      -1.75530000       0.50340000
H        2.57560000      -1.60340000       0.33200000
H        1.41800000      -2.86220000       0.84050000
H       -0.28780000      -0.76180000      -2.03280000
H        1.33130000      -0.07320000      -1.74460000
H        2.22130000       0.73340000       4.12980000
