17
Properties=species:S:1:pos:R:3 gdb_38591=T pbc="F F F"
C       -0.01910000       1.49240000       0.11010000
C        1.29470000       0.77540000      -0.04060000
O        2.10680000       0.53180000       1.12290000
C        1.67780000      -0.75760000       1.56020000
C        0.98270000      -1.22350000       2.88900000
C       -0.00800000      -0.06810000       2.78670000
C        0.18920000      -0.69350000       1.36940000
O        0.08550000      -2.04410000       1.99490000
C       -0.01390000      -0.02240000       0.02890000
H       -0.25590000       1.95880000       1.05890000
H       -0.37900000       2.03470000      -0.75890000
H        1.87240000       0.87570000      -0.95300000
H        2.19860000      -1.56710000       1.04060000
H        1.38420000      -1.74510000       3.75690000
H       -0.98310000      -0.24850000       3.23900000
H        0.37920000       0.93580000       2.96060000
H       -0.42450000      -0.54800000      -0.82340000
