20
Properties=species:S:1:pos:R:3 gdb_66448=T pbc="F F F"
C        0.00740000       1.46320000       0.01800000
C       -0.05480000      -0.03210000      -0.01850000
C        1.08400000      -0.95120000      -0.47570000
C        0.55360000      -1.06350000       0.92430000
C       -0.43550000      -2.08550000       0.31130000
C       -0.97690000      -3.34000000       0.91750000
C       -1.23670000      -0.95030000      -0.42610000
C       -0.79880000      -1.60600000      -1.74700000
N        0.39190000      -2.16480000      -1.00320000
H        1.00690000       1.80630000       0.30820000
H       -0.21650000       1.89490000      -0.96510000
H       -0.70510000       1.88470000       0.73650000
H        2.04140000      -0.60460000      -0.84480000
H        1.03880000      -0.97780000       1.88810000
H       -1.56930000      -3.11530000       1.81150000
H       -1.61960000      -3.87290000       0.20850000
H       -0.16100000      -4.01140000       1.20490000
H       -2.25630000      -0.64550000      -0.18550000
H       -1.44830000      -2.42610000      -2.06710000
H       -0.55400000      -0.96920000      -2.60290000
