20
Properties=species:S:1:pos:R:3 gdb_95045=T pbc="F F F"
C       -0.48020000       1.49500000       0.00880000
C       -0.00830000       0.04220000      -0.00720000
C        0.96400000      -0.31640000      -1.15370000
C        1.60490000      -1.64580000      -0.71020000
C        1.75670000      -1.50230000       0.79920000
O        2.86970000      -0.61040000       1.16300000
C        1.99930000       0.35890000       1.61590000
N        2.23200000       1.47820000       2.13490000
C        0.74550000      -0.41830000       1.26220000
H        0.36080000       2.17810000       0.15610000
H       -0.97490000       1.75000000      -0.93420000
H       -1.19420000       1.67240000       0.81950000
H       -0.88610000      -0.61320000      -0.09700000
H        0.46010000      -0.38830000      -2.12120000
H        1.73230000       0.46020000      -1.24440000
H        0.92730000      -2.48440000      -0.91340000
H        2.55840000      -1.86530000      -1.19820000
H        1.83310000      -2.43620000       1.35810000
H        3.23720000       1.64710000       2.21030000
H        0.09470000      -0.63460000       2.11000000
