22
Properties=species:S:1:pos:R:3 gdb_93271=T pbc="F F F"
C       -0.84860000       1.07890000      -0.05990000
C        0.13340000      -0.08860000      -0.11580000
C        1.33300000       0.15230000      -1.06110000
N        2.32670000      -0.76960000      -0.54470000
C        2.11380000      -1.17410000       0.74350000
O        2.84610000      -1.88550000       1.39870000
C        0.79510000      -0.52750000       1.22140000
C        1.18860000       0.65660000       2.12890000
C       -0.03760000      -1.53950000       2.01210000
H       -0.36600000       2.00140000       0.27690000
H       -1.27630000       1.27160000      -1.04990000
H       -1.67950000       0.86590000       0.62010000
H       -0.39920000      -0.96700000      -0.50210000
H        1.08360000      -0.06690000      -2.10470000
H        1.67710000       1.19670000      -1.01410000
H        3.20260000      -0.96710000      -1.00230000
H        1.76680000       1.41570000       1.59110000
H        0.30120000       1.14130000       2.54710000
H        1.80420000       0.29420000       2.95680000
H        0.55090000      -1.93670000       2.84350000
H       -0.94310000      -1.07470000       2.41680000
H       -0.33940000      -2.38410000       1.38410000
