13
Properties=species:S:1:pos:R:3 gdb_51454=T pbc="F F F"
O       -0.00090000      -0.02190000       0.01890000
C        0.02260000       1.16690000      -0.02750000
O        1.18160000       1.87070000      -0.04800000
C        1.10640000       3.27270000      -0.13430000
C        2.16950000       4.05560000       0.63570000
O        3.41960000       3.73600000       0.04730000
C        2.63880000       4.77450000      -0.58150000
C        1.64270000       3.99540000      -1.43270000
O        1.29700000       3.99790000      -2.57130000
H       -0.87240000       1.81830000      -0.05260000
H        0.08750000       3.63560000       0.06330000
H        2.15420000       4.40740000       1.65960000
H        3.08540000       5.75350000      -0.69650000
