21
Properties=species:S:1:pos:R:3 gdb_117781=T pbc="F F F"
C       -0.11400000       1.59390000      -0.07310000
C        0.02290000       0.07630000       0.00760000
N       -1.30220000      -0.54580000       0.07380000
C       -1.35360000      -2.00970000       0.08340000
C       -0.61510000      -2.70120000       1.25100000
C       -2.86080000      -2.40610000       0.09840000
O       -3.07320000      -3.79490000       0.01480000
C       -0.80620000      -2.51130000      -1.19540000
N       -0.41990000      -2.95770000      -2.18940000
H        0.86980000       2.06510000      -0.15390000
H       -0.71420000       1.88110000      -0.94060000
H       -0.60050000       1.99550000       0.82370000
H        0.52030000      -0.29860000      -0.89400000
H        0.66990000      -0.18970000       0.86020000
H       -1.79340000      -0.20970000       0.89760000
H       -0.97950000      -2.28570000       2.19670000
H       -0.82190000      -3.77340000       1.24230000
H        0.46450000      -2.54870000       1.19580000
H       -3.28120000      -2.08660000       1.05890000
H       -3.36680000      -1.84930000      -0.70010000
H       -2.83440000      -4.08020000      -0.87480000
