17
Properties=species:S:1:pos:R:3 gdb_90846=T pbc="F F F"
O        0.02140000       1.37780000      -0.12070000
C       -0.06070000      -0.02980000      -0.01620000
C        0.35100000      -0.59720000       1.42400000
N       -0.90120000      -1.16930000       2.04140000
C       -1.52610000      -1.84890000       0.84390000
C       -2.94350000      -1.23230000       0.95600000
N       -2.89920000      -0.54060000      -0.41180000
C       -1.48840000      -0.48540000       0.11170000
C       -1.96090000      -0.20680000       1.55770000
H        0.95120000       1.62440000      -0.14020000
H        0.49620000      -0.52260000      -0.82440000
H        1.11030000      -1.38220000       1.36120000
H        0.73160000       0.22230000       2.04050000
H       -1.21450000      -2.82960000       0.47710000
H       -3.86980000      -1.64260000       1.35680000
H       -2.97180000      -1.24150000      -1.15540000
H       -2.16010000       0.76150000       2.01290000
