21
Properties=species:S:1:pos:R:3 gdb_79195=T pbc="F F F"
C       -0.00650000       1.41940000      -0.02720000
C       -0.01980000      -0.09130000      -0.06640000
C       -0.89970000      -0.85270000       0.88290000
O       -1.83870000      -1.81830000       0.49440000
C        0.60250000      -1.01510000       1.00560000
C        1.42120000      -1.95840000       0.10430000
C        0.48330000      -2.29210000      -1.09030000
C        0.57900000      -0.76090000      -1.32660000
C        2.07490000      -0.91600000      -0.86860000
H        0.96650000       1.81940000      -0.33460000
H       -0.76250000       1.83820000      -0.70270000
H       -0.21720000       1.79770000       0.97810000
H       -1.29110000      -0.19980000       1.66800000
H       -1.90690000      -2.46090000       1.20910000
H        1.08510000      -0.62090000       1.89560000
H        2.00850000      -2.72920000       0.60550000
H        1.02500000      -2.83860000      -1.86640000
H       -0.48670000      -2.73910000      -0.90560000
H        0.31220000      -0.30900000      -2.28320000
H        2.57070000      -0.04720000      -0.42620000
H        2.71400000      -1.37260000      -1.63000000
