18
Properties=species:S:1:pos:R:3 gdb_51170=T pbc="F F F"
N       -0.01340000       1.28000000      -0.30560000
C       -0.07270000       0.02100000      -0.33600000
O       -1.09910000      -0.61720000       0.27460000
C       -1.04260000      -2.01850000       0.28080000
C       -1.25560000      -2.80000000      -1.00260000
C       -2.28860000      -2.82350000       0.11040000
O       -2.30970000      -3.89520000       1.00890000
C       -0.98330000      -4.06430000       1.52070000
C       -0.28230000      -2.69370000       1.41220000
H        0.80510000       1.60060000      -0.81900000
H        0.63080000      -0.66230000      -0.82820000
H       -1.52820000      -2.21910000      -1.87720000
H       -0.64770000      -3.67490000      -1.20760000
H       -3.26240000      -2.37710000      -0.04670000
H       -1.06460000      -4.42950000       2.54720000
H       -0.44960000      -4.82320000       0.93230000
H        0.79260000      -2.79740000       1.23690000
H       -0.42830000      -2.09290000       2.31530000
