15
Properties=species:S:1:pos:R:3 gdb_128453=T pbc="F F F"
C        0.04060000       1.33570000       0.00920000
O       -0.03140000      -0.09780000       0.00240000
C       -1.26560000      -0.58810000       0.00920000
O       -2.29050000       0.04450000       0.02020000
N       -1.25680000      -1.99570000       0.00190000
C       -2.39030000      -2.76900000       0.00640000
C       -1.97170000      -4.07020000      -0.00340000
C       -0.55180000      -3.98990000      -0.01370000
N       -0.11800000      -2.74350000      -0.01060000
H        1.10410000       1.57070000       0.00140000
H       -0.45200000       1.74830000      -0.87430000
H       -0.43690000       1.73900000       0.90520000
H       -3.36240000      -2.30660000       0.01610000
H       -2.58840000      -4.95400000      -0.00330000
H        0.16310000      -4.80050000      -0.02330000
