25
Properties=species:S:1:pos:R:3 gdb_117844=T pbc="F F F"
C        2.32400000       1.57410000      -1.48030000
C        2.30610000       0.04290000      -1.50710000
C        0.88320000      -0.52090000      -1.62370000
C        0.74490000      -2.04070000      -1.42980000
O        1.29990000      -2.35290000      -0.15100000
C       -0.73900000      -2.48460000      -1.49140000
C       -1.60970000      -1.96630000      -0.34390000
C        1.54220000      -2.81670000      -2.49260000
O        1.51750000      -4.19320000      -2.10990000
H        1.87990000       1.99570000      -2.38950000
H        1.75520000       1.96050000      -0.62720000
H        3.34550000       1.95940000      -1.40080000
H        2.92580000      -0.30350000      -2.34360000
H        2.76300000      -0.35460000      -0.59550000
H        0.26070000      -0.03570000      -0.86380000
H        0.44870000      -0.25050000      -2.59530000
H        1.47410000      -3.30310000      -0.17240000
H       -1.15860000      -2.17380000      -2.45740000
H       -0.75340000      -3.57990000      -1.48890000
H       -2.59730000      -2.43710000      -0.36850000
H       -1.14310000      -2.19390000       0.61790000
H       -1.76410000      -0.88400000      -0.39470000
H        1.09250000      -2.67550000      -3.48660000
H        2.57500000      -2.45100000      -2.52150000
H        2.21670000      -4.65480000      -2.57970000
