25
Properties=species:S:1:pos:R:3 gdb_117983=T pbc="F F F"
C       -0.11440000       1.52880000      -0.02340000
C       -0.02520000       0.01780000       0.11590000
O       -1.33080000      -0.51610000       0.01280000
C       -1.41550000      -1.93650000       0.01420000
C       -1.27600000      -2.50780000       1.42850000
C       -2.74830000      -2.31270000      -0.69430000
C       -3.96190000      -1.68310000      -0.00110000
C       -2.68150000      -1.88660000      -2.16210000
O       -2.86470000      -3.74060000      -0.71770000
H        0.88050000       1.97820000       0.05110000
H       -0.54820000       1.80090000      -0.98990000
H       -0.74480000       1.94980000       0.76500000
H        0.61810000      -0.40650000      -0.67290000
H        0.43380000      -0.24460000       1.08200000
H       -0.60540000      -2.35140000      -0.60730000
H       -0.29640000      -2.26610000       1.84990000
H       -2.03750000      -2.10000000       2.09990000
H       -1.35840000      -3.59790000       1.41060000
H       -3.85800000      -0.59700000       0.04670000
H       -4.87450000      -1.93170000      -0.55020000
H       -4.07350000      -2.05200000       1.02500000
H       -1.87660000      -2.42510000      -2.67160000
H       -3.62100000      -2.12420000      -2.66840000
H       -2.49190000      -0.81450000      -2.23860000
H       -3.19520000      -4.02740000       0.13920000
