19
Properties=species:S:1:pos:R:3 gdb_34248=T pbc="F F F"
C        0.06990000      -1.17760000      -0.04160000
C        0.02800000       0.02570000      -0.01000000
C       -0.04140000       1.44610000       0.04030000
C       -1.22740000       2.26460000       0.57370000
C       -0.79240000       3.44430000      -0.35370000
C        0.10450000       4.43370000       0.40370000
C        1.28740000       3.55310000       0.89480000
C        1.22200000       2.31940000      -0.00560000
C        0.18730000       2.47700000      -1.07540000
H        0.11010000      -2.23780000      -0.07050000
H       -2.17300000       1.82060000       0.25540000
H       -1.26820000       2.45840000       1.65170000
H       -1.58740000       3.90180000      -0.94170000
H        0.46440000       5.21310000      -0.27760000
H       -0.42390000       4.92950000       1.22420000
H        2.24840000       4.06410000       0.78350000
H        1.18930000       3.28820000       1.95270000
H        2.12760000       1.77000000      -0.23490000
H        0.32670000       2.31550000      -2.13570000
