20
Properties=species:S:1:pos:R:3 gdb_58367=T pbc="F F F"
C       -1.51910000      -0.40820000      -0.04180000
C       -0.01850000      -0.12790000       0.10600000
C        0.52660000      -0.70710000       1.41760000
C        0.75190000      -0.63080000      -1.15030000
C        2.24310000      -0.18170000      -1.18390000
C        2.39680000       1.27050000      -1.13990000
N        2.50380000       2.42090000      -1.10860000
C        0.69490000      -2.08300000      -1.30520000
C        0.67340000      -3.27880000      -1.42770000
H       -1.92370000       0.04760000      -0.95170000
H       -1.71490000      -1.48450000      -0.08830000
H       -2.07120000      -0.00080000       0.81040000
H        0.12300000       0.95990000       0.12420000
H        0.45220000      -1.79940000       1.42560000
H        1.57300000      -0.43630000       1.58970000
H       -0.04900000      -0.32370000       2.26520000
H        0.26590000      -0.17720000      -2.02410000
H        2.79030000      -0.62460000      -0.34650000
H        2.71190000      -0.55610000      -2.09920000
H        0.64010000      -4.33410000      -1.54430000
