15
Properties=species:S:1:pos:R:3 gdb_123582=T pbc="F F F"
C       -0.01490000       1.46520000       0.08600000
C        1.29960000       0.74200000       0.02940000
C        2.04070000       0.46740000       1.35700000
C        1.06710000      -0.41970000       2.07990000
N        0.98050000      -1.02670000       3.22160000
O       -0.20140000      -1.74280000       3.14340000
N       -0.84210000      -1.55360000       1.92660000
C       -0.06520000      -0.73980000       1.28050000
C       -0.02000000      -0.05060000      -0.02190000
H       -0.33600000       1.91140000       1.02190000
H       -0.32060000       2.01330000      -0.79830000
H        1.89760000       0.84670000      -0.86750000
H        2.98870000      -0.05120000       1.18010000
H        2.27030000       1.38660000       1.90460000
H       -0.38520000      -0.52540000      -0.92260000
