17
Properties=species:S:1:pos:R:3 gdb_68907=T pbc="F F F"
C       -0.09060000       1.51400000      -0.09490000
C        0.01430000       0.02510000       0.04360000
C        1.25140000      -0.79260000      -0.26450000
C        0.67000000      -0.77120000       1.13400000
C        1.38320000      -0.27600000       2.35580000
O       -0.23230000      -1.83680000       1.40260000
C       -1.32260000      -1.73940000       0.59190000
O       -2.23460000      -2.50110000       0.58410000
O       -1.20810000      -0.65170000      -0.21990000
H        0.85370000       1.99000000       0.18140000
H       -0.31740000       1.78800000      -1.12980000
H       -0.88280000       1.90950000       0.54760000
H        1.14410000      -1.69410000      -0.85830000
H        2.17370000      -0.24200000      -0.41690000
H        2.01250000       0.58250000       2.10810000
H        0.66890000       0.02510000       3.12780000
H        2.02650000      -1.05920000       2.76840000
