13
Properties=species:S:1:pos:R:3 gdb_10252=T pbc="F F F"
N        1.00050000      -0.87260000      -0.35020000
C       -0.03170000      -0.03650000      -0.15510000
O        0.03700000       1.17170000      -0.07570000
N       -1.32170000      -0.69560000      -0.03590000
C       -1.57750000      -2.06550000      -0.10230000
N       -0.68140000      -2.95070000      -0.28240000
C       -2.43690000       0.14840000       0.17020000
O       -3.56490000      -0.25840000       0.28690000
H        1.90920000      -0.45100000      -0.43710000
H        0.84440000      -1.87720000      -0.40360000
H       -2.64400000      -2.25600000       0.02210000
H       -1.09310000      -3.88020000      -0.29650000
H       -2.13390000       1.20000000       0.20740000
