21
Properties=species:S:1:pos:R:3 gdb_39237=T pbc="F F F"
C       -0.04510000       1.48130000      -0.19700000
C        1.30850000       0.87680000       0.08540000
C        1.97390000       0.96750000       1.44480000
C        2.75970000      -0.30950000       1.77630000
C        1.94700000      -1.56940000       2.01480000
O        0.97180000      -1.56360000       3.06150000
C        0.51640000      -1.79000000       1.71830000
C       -0.43280000      -0.74760000       1.13290000
C        0.10520000      -0.01890000      -0.08570000
H       -0.55120000       1.99460000       0.61530000
H       -0.22310000       1.91710000      -1.17400000
H        2.01010000       0.88480000      -0.74600000
H        2.65860000       1.82350000       1.46750000
H        1.23400000       1.15040000       2.23000000
H        3.46090000      -0.52510000       0.95850000
H        3.37890000      -0.14720000       2.66860000
H        2.57020000      -2.46830000       2.02620000
H        0.22580000      -2.82740000       1.53930000
H       -1.38400000      -1.23180000       0.88450000
H       -0.65820000      -0.03280000       1.92940000
H        0.05170000      -0.58060000      -1.01430000
