20
Properties=species:S:1:pos:R:3 gdb_85005=T pbc="F F F"
C       -0.06780000       1.55080000      -0.00270000
C        0.04730000       0.02790000       0.02450000
O        0.83500000      -0.41210000      -1.09340000
C        1.89400000      -1.15590000      -0.64230000
N        2.77660000      -1.69220000      -1.37760000
C        1.82850000      -1.22860000       0.82740000
C        2.85890000      -1.98040000       1.60250000
C        0.74950000      -0.54430000       1.23480000
C        0.22370000      -0.32700000       2.61500000
H        0.91770000       2.01070000       0.11510000
H       -0.49490000       1.87720000      -0.95440000
H       -0.71920000       1.90200000       0.80350000
H       -0.95610000      -0.41190000      -0.08410000
H        2.59170000      -1.49560000      -2.36220000
H        2.90310000      -3.02150000       1.26640000
H        3.85380000      -1.55900000       1.42380000
H        2.66090000      -1.96500000       2.67670000
H        0.81150000      -0.86400000       3.36240000
H        0.23090000       0.73690000       2.88230000
H       -0.81760000      -0.66350000       2.69700000
