23
Properties=species:S:1:pos:R:3 gdb_107965=T pbc="F F F"
C       -0.08120000       1.53840000       0.02120000
C        0.03800000       0.01090000      -0.05580000
C        0.70430000      -0.47320000      -1.31900000
C        0.26370000      -0.25930000      -2.78670000
C        1.54980000      -1.09680000      -2.89560000
C        2.22880000      -0.35600000      -1.69820000
C        2.58790000      -1.67420000      -0.98990000
C        1.20340000      -1.94810000      -1.61910000
C        0.38210000      -3.20800000      -1.56280000
H        0.90510000       2.01320000      -0.01110000
H       -0.66600000       1.93220000      -0.81660000
H       -0.57330000       1.85020000       0.94750000
H        0.59930000      -0.35850000       0.81290000
H       -0.96230000      -0.43790000       0.01560000
H       -0.67210000      -0.73640000      -3.09890000
H        0.31180000       0.76480000      -3.17240000
H        2.05960000      -1.46550000      -3.78790000
H        2.80310000       0.56970000      -1.76660000
H        3.43130000      -2.23930000      -1.40250000
H        2.64430000      -1.65680000       0.10420000
H        0.13040000      -3.47070000      -0.52880000
H       -0.55680000      -3.09960000      -2.11750000
H        0.92830000      -4.05410000      -1.99510000
