15
Properties=species:S:1:pos:R:3 gdb_30541=T pbc="F F F"
N       -0.15890000       1.36210000       0.09380000
C       -0.08960000       0.01080000       0.00880000
N       -1.14570000      -0.72000000       0.03230000
C       -0.97200000      -2.07630000       0.01950000
N        0.09220000      -2.81710000       0.08980000
C       -0.37830000      -4.12690000       0.05090000
C       -1.73290000      -4.10270000      -0.04920000
N       -2.73310000      -5.05160000      -0.21510000
O       -2.13460000      -2.80280000      -0.07170000
H        0.64010000       1.91810000      -0.15440000
H       -1.06800000       1.79240000       0.02350000
H        0.92220000      -0.40020000      -0.04620000
H        0.28230000      -4.97740000       0.10150000
H       -2.40970000      -5.98370000       0.00700000
H       -3.56620000      -4.83580000       0.32040000
