11
Properties=species:S:1:pos:R:3 gdb_130888=T pbc="F F F"
O       -0.04260000       0.00720000      -0.00130000
C       -0.00300000       1.20790000       0.00830000
C        1.26260000       1.98760000       0.00170000
N        1.37470000       3.28280000       0.01130000
C        2.73780000       3.45070000      -0.00140000
C        3.36740000       4.80290000       0.00320000
O        4.55330000       4.99230000      -0.00740000
N        3.42030000       2.32540000      -0.01770000
O        2.44630000       1.35290000      -0.01560000
H       -0.89830000       1.85700000       0.02290000
H        2.61990000       5.62050000       0.01770000
