21
Properties=species:S:1:pos:R:3 gdb_68490=T pbc="F F F"
O       -0.05140000       1.45230000      -0.04490000
C       -0.01550000       0.04090000       0.02060000
C        0.24900000      -0.58730000       1.42450000
C       -0.89600000      -1.59580000       1.13300000
C       -1.42810000      -0.59110000       0.06770000
O       -0.51540000      -2.86370000       0.63120000
C        0.66760000      -2.95240000      -0.14640000
C        0.70910000      -2.03800000      -1.37540000
C        0.88720000      -0.53680000      -1.08030000
H        0.85470000       1.77500000      -0.10270000
H        1.24470000      -0.97090000       1.66030000
H       -0.05750000       0.11620000       2.20210000
H       -1.57310000      -1.81450000       1.96070000
H       -2.13280000       0.11550000       0.51350000
H       -1.85550000      -1.00220000      -0.84910000
H        1.55970000      -2.78230000       0.47690000
H        0.70130000      -3.99720000      -0.47040000
H        1.53780000      -2.36900000      -2.01260000
H       -0.20780000      -2.20050000      -1.95280000
H        0.69420000       0.03090000      -1.99770000
H        1.93370000      -0.34200000      -0.80100000
