21
Properties=species:S:1:pos:R:3 gdb_82096=T pbc="F F F"
C       -0.24570000       1.72230000       0.13990000
C       -0.25010000       0.20110000       0.09610000
C        0.67440000      -0.49630000      -0.91330000
N        2.05560000      -0.07640000      -0.59350000
C        1.43320000      -1.19790000       0.16150000
C        0.49870000      -0.60060000       1.23780000
N        0.94130000       0.12650000       2.40860000
C        1.94610000      -0.50820000       3.25650000
C        2.28330000       0.70260000       2.45860000
H        0.77560000       2.10770000       0.10860000
H       -0.79520000       2.13590000      -0.71310000
H       -0.72090000       2.08080000       1.05760000
H       -1.27470000      -0.17230000       0.00690000
H        0.42370000      -0.84590000      -1.90750000
H        2.66820000      -0.49770000      -1.29090000
H        1.88560000      -2.18280000       0.14750000
H       -0.16210000      -1.39710000       1.59650000
H        1.77320000      -0.44040000       4.32740000
H        2.37340000      -1.45360000       2.92520000
H        2.92570000       0.57930000       1.59440000
H        2.34480000       1.67160000       2.94720000
