18
Properties=species:S:1:pos:R:3 gdb_115173=T pbc="F F F"
C       -0.25290000       0.59690000      -0.53110000
O       -0.48040000      -0.15670000       0.65020000
C        0.66200000      -0.35930000       1.44450000
C        0.19080000      -0.83770000       2.82440000
O        0.03990000      -2.27460000       2.72110000
C        0.68750000      -2.71610000       1.61930000
N        0.63920000      -3.86820000       1.10790000
C        1.49490000      -1.58900000       1.01010000
O        1.70440000      -1.75770000      -0.36000000
H        0.42970000       0.08380000      -1.21340000
H       -1.22650000       0.72530000      -1.00980000
H        0.15520000       1.59090000      -0.29010000
H        1.26360000       0.55750000       1.51260000
H        0.91790000      -0.61190000       3.61150000
H       -0.78090000      -0.41480000       3.08190000
H        0.01790000      -4.49720000       1.61540000
H        2.45910000      -1.53870000       1.54810000
H        1.44840000      -2.67510000      -0.54610000
