21
Properties=species:S:1:pos:R:3 gdb_118309=T pbc="F F F"
C       -0.15770000       1.55960000      -0.02450000
C       -0.05770000       0.04010000       0.05590000
N       -1.36450000      -0.56830000      -0.07320000
C       -1.55310000      -1.91550000      -0.09100000
C       -3.02140000      -2.26990000      -0.14600000
O       -3.89100000      -1.43010000      -0.11450000
N       -0.55800000      -2.72720000      -0.07020000
C       -0.69430000      -4.16860000      -0.11960000
C       -0.13160000      -4.71480000      -1.43740000
H        0.83290000       2.01130000       0.07400000
H       -0.58230000       1.87740000      -0.98230000
H       -0.78830000       1.95870000       0.77770000
H        0.59320000      -0.34960000      -0.73610000
H        0.40860000      -0.26740000       1.00320000
H       -2.19870000      -0.00690000      -0.00490000
H       -3.26970000      -3.34140000      -0.22210000
H       -0.10000000      -4.57740000       0.70860000
H       -1.71520000      -4.55000000       0.02450000
H       -0.12840000      -5.80950000      -1.43350000
H       -0.73280000      -4.37480000      -2.28710000
H        0.89210000      -4.36070000      -1.58730000
