15
Properties=species:S:1:pos:R:3 gdb_10940=T pbc="F F F"
O        0.09410000       1.36930000      -0.37230000
C       -0.02710000       0.02010000      -0.13280000
C       -0.48240000      -0.87900000      -1.22910000
C       -1.26000000      -0.87610000       0.07050000
C       -0.48340000      -1.71520000       1.10530000
C        0.75780000      -0.75700000       0.92870000
C       -1.05050000      -1.70350000       2.44450000
N       -1.50570000      -1.67980000       3.50720000
H       -0.05540000       1.84320000       0.45410000
H       -0.97970000      -0.35750000      -2.03990000
H        0.09630000      -1.74910000      -1.53390000
H       -2.31660000      -0.64940000       0.12190000
H       -0.30280000      -2.75250000       0.80420000
H        1.69560000      -1.22480000       0.61510000
H        0.93320000      -0.17310000       1.83510000
