20
Properties=species:S:1:pos:R:3 gdb_41429=T pbc="F F F"
C       -0.03870000       1.55650000      -0.02990000
C        1.49250000       1.90200000      -0.02120000
C        2.04890000       0.49220000       0.03530000
C        3.44680000      -0.08650000       0.07430000
C        3.02360000      -1.59750000       0.12100000
N        1.53260000      -1.57940000       0.10020000
C        1.14930000      -0.39490000       0.96350000
C       -0.00110000       0.02030000       0.02400000
C        1.17390000      -0.45800000      -0.85310000
H       -0.56480000       1.98340000       0.83000000
H       -0.54100000       1.92220000      -0.93110000
H        1.80330000       2.44590000      -0.91900000
H        1.77950000       2.50720000       0.84470000
H        4.03990000       0.16120000      -0.81190000
H        4.01600000       0.22260000       0.95670000
H        3.39040000      -2.16520000      -0.73940000
H        3.36650000      -2.10380000       1.02830000
H        1.16440000      -0.44650000       2.05580000
H       -0.93970000      -0.53310000       0.03050000
H        1.21840000      -0.58520000      -1.93840000
