15
Properties=species:S:1:pos:R:3 gdb_64575=T pbc="F F F"
O        0.00920000       1.48710000       0.07180000
C       -0.04630000       0.10770000       0.00960000
C        0.85830000      -0.51170000       1.05980000
O        1.54290000       0.18310000       1.77080000
C       -1.39900000      -0.61480000      -0.04440000
C       -2.08230000      -0.40740000      -1.32910000
N       -0.97980000      -1.41130000      -1.29100000
C        0.21740000      -0.60520000      -1.35580000
N        1.09240000      -0.60230000      -2.25170000
H        0.62860000       1.69600000       0.79230000
H        0.85890000      -1.61560000       1.12610000
H       -1.87020000      -1.11730000       0.79250000
H       -3.05660000      -0.86820000      -1.45160000
H       -1.92820000       0.50890000      -1.89070000
H        1.82980000       0.07210000      -2.03760000
