19
Properties=species:S:1:pos:R:3 gdb_113159=T pbc="F F F"
C        0.86390000       1.04010000      -0.31750000
C        0.21960000      -0.22950000       0.18800000
N        1.01710000      -1.35400000       0.72510000
C        0.18530000      -0.57080000       1.64920000
C        0.83840000       0.32510000       2.70760000
N        2.30300000       0.29740000       2.61810000
H        1.98670000      -1.05710000       0.83920000
H        2.69900000       1.12740000       3.04460000
H        2.67340000      -0.49720000       3.12970000
C       -0.96180000      -0.71150000      -0.63420000
O       -1.70480000       0.03110000      -1.22040000
O       -1.11620000      -2.04570000      -0.62980000
H        1.26470000       0.88860000      -1.32490000
H        0.11260000       1.83080000      -0.38320000
H        1.67970000       1.35900000       0.33310000
H       -0.32320000      -2.39980000      -0.17470000
H       -0.68780000      -1.11200000       2.00640000
H        0.50710000       1.35900000       2.56290000
H        0.46160000       0.01330000       3.69170000
