17
Properties=species:S:1:pos:R:3 gdb_105859=T pbc="F F F"
C        0.01260000       1.37180000       0.26100000
O       -0.00110000       0.01710000      -0.18820000
C       -1.24380000      -0.55370000      -0.13880000
C       -1.81860000      -1.11700000       1.13790000
O       -3.07320000      -0.70230000       1.59430000
C       -1.63910000      -2.06660000      -0.00370000
C       -2.79190000      -1.88530000      -1.00460000
C       -2.31310000      -0.42430000      -1.19470000
O       -2.53670000       0.41320000      -2.02100000
H        1.04700000       1.71300000       0.18930000
H       -0.62550000       1.99990000      -0.37020000
H       -0.32470000       1.44720000       1.30350000
H       -1.04830000      -1.19120000       1.90740000
H       -3.45070000      -1.41400000       2.12330000
H       -0.96630000      -2.91340000       0.03250000
H       -2.67260000      -2.45160000      -1.93180000
H       -3.80100000      -2.02020000      -0.61150000
