20
Properties=species:S:1:pos:R:3 gdb_13502=T pbc="F F F"
C       -0.09440000       1.45130000      -0.17570000
C       -0.00300000      -0.06630000       0.03010000
C        0.85640000      -0.42660000       1.25000000
C       -1.40380000      -0.65350000       0.17230000
O       -2.27060000      -0.33990000      -0.95030000
C       -2.46910000      -1.73010000      -1.26490000
C       -1.60120000      -2.17310000      -0.06700000
O       -0.40450000      -2.85770000      -0.36110000
H        0.89750000       1.87830000      -0.35520000
H       -0.73440000       1.68960000      -1.02890000
H       -0.51330000       1.94390000       0.71040000
H        0.45270000      -0.51420000      -0.86030000
H        1.86210000      -0.00590000       1.15000000
H        0.42110000      -0.02060000       2.17160000
H        0.94990000      -1.50970000       1.35970000
H       -1.85850000      -0.29840000       1.10910000
H       -3.52870000      -2.01380000      -1.23370000
H       -2.04380000      -2.00360000      -2.23930000
H       -2.16010000      -2.67750000       0.73040000
H       -0.61050000      -3.78770000      -0.49550000
