18
Properties=species:S:1:pos:R:3 gdb_66790=T pbc="F F F"
C       -0.04080000       1.48170000       0.02810000
C        0.11310000      -0.01350000      -0.00130000
C        0.45940000      -0.74880000      -1.31570000
C        0.53400000      -2.18430000      -0.82880000
C        0.68590000      -2.19840000       0.68590000
C       -0.56280000      -1.57750000       1.26940000
C        0.71210000      -0.77230000       1.20440000
N       -1.17210000      -0.84240000       0.11980000
C       -0.80450000      -1.55500000      -1.14120000
H        0.93530000       1.97230000      -0.06460000
H       -0.67650000       1.81940000      -0.79590000
H       -0.50060000       1.80280000       0.96760000
H        0.93380000      -0.35350000      -2.20570000
H        0.94780000      -2.95820000      -1.46180000
H        1.21570000      -2.98300000       1.20980000
H       -1.14570000      -1.95590000       2.10040000
H        1.35450000      -0.39260000       1.98960000
H       -1.54150000      -1.91910000      -1.84670000
