21
Properties=species:S:1:pos:R:3 gdb_110642=T pbc="F F F"
C       -0.40430000       1.21160000       0.11470000
O        0.45910000       0.14540000      -0.22930000
C        0.87900000      -0.57570000       0.89020000
C        0.11740000      -1.63200000       1.65220000
C       -0.62300000      -2.70180000       0.81170000
C       -0.57480000      -2.50270000      -0.68230000
C        0.64530000      -3.00770000       0.04130000
C        1.43170000      -1.95820000       0.88190000
C        2.79820000      -2.30250000       1.40360000
H        0.08650000       1.92110000       0.79900000
H       -0.65940000       1.73250000      -0.81090000
H       -1.32470000       0.84930000       0.59380000
H        1.43540000       0.05910000       1.58990000
H       -0.02450000      -1.55170000       2.72440000
H       -1.30250000      -3.40580000       1.27440000
H       -1.09640000      -3.28110000      -1.23390000
H       -0.59820000      -1.52470000      -1.13820000
H        1.08140000      -3.97710000      -0.16560000
H        3.53690000      -2.31430000       0.59190000
H        3.13520000      -1.57830000       2.15190000
H        2.80540000      -3.29520000       1.86910000
