17
Properties=species:S:1:pos:R:3 gdb_98239=T pbc="F F F"
C        0.11160000       1.38320000      -0.22590000
N       -0.09800000      -0.05290000      -0.20390000
C       -1.25270000      -0.60800000       0.20900000
O       -2.21120000      -0.00250000       0.66450000
C       -1.29670000      -2.15950000       0.11640000
N       -2.64690000      -2.63420000       0.40190000
H       -3.20700000      -1.81420000       0.64080000
H       -2.53090000      -3.36070000      -1.27080000
H       -2.66170000      -3.26500000       1.19390000
C       -0.83950000      -2.65640000      -1.27460000
O        0.25690000      -2.41820000      -1.72680000
O       -1.76550000      -3.36170000      -1.90440000
H        1.08860000       1.63180000       0.19890000
H        0.06170000       1.78090000      -1.24600000
H       -0.67200000       1.84960000       0.37160000
H        0.53670000      -0.66540000      -0.70490000
H       -0.55580000      -2.54130000       0.82810000
