17
Properties=species:S:1:pos:R:3 gdb_128326=T pbc="F F F"
C       -0.08890000       1.42340000       0.06450000
N       -0.02520000      -0.02250000       0.21480000
C       -1.20070000      -0.74400000       0.07520000
N       -2.39110000      -0.15560000       0.08910000
N       -3.28430000      -1.20270000       0.00420000
C       -2.66280000      -2.39040000      -0.07220000
O       -3.33430000      -3.55020000      -0.16210000
C       -1.30250000      -2.16290000      -0.03370000
N       -0.34750000      -3.21580000      -0.07370000
H        0.90970000       1.83960000       0.21970000
H       -0.46590000       1.74470000      -0.91760000
H       -0.76080000       1.83340000       0.82220000
H        0.75020000      -0.44940000      -0.27150000
H       -4.27070000      -1.01830000       0.00050000
H       -2.65040000      -4.23720000      -0.17040000
H        0.26860000      -3.21020000       0.73340000
H        0.23760000      -3.19050000      -0.90340000
