15
Properties=species:S:1:pos:R:3 gdb_29313=T pbc="F F F"
C       -0.04940000       1.54640000       0.07130000
C       -0.00940000       0.05460000       0.02930000
C        0.00320000      -0.75750000      -1.07620000
O        0.02510000      -2.07110000      -0.72180000
C        0.03670000      -2.10220000       0.63810000
C        0.01290000      -0.83580000       1.15420000
N       -0.07030000      -0.43270000       2.48960000
C       -0.00590000      -0.43600000      -2.44920000
N       -0.01350000      -0.13180000      -3.56800000
H        0.85000000       1.95960000       0.54510000
H       -0.11590000       1.96620000      -0.93490000
H       -0.91110000       1.89850000       0.64940000
H        0.05060000      -3.08170000       1.08620000
H        0.19110000      -1.15470000       3.14750000
H        0.45360000       0.41070000       2.68400000
