20
Properties=species:S:1:pos:R:3 gdb_68860=T pbc="F F F"
C        0.02490000       1.53040000      -0.06080000
C        0.12980000       0.02870000       0.00210000
C        0.35400000      -0.73560000      -1.30740000
C        1.11380000      -1.98310000      -0.88380000
O        2.41490000      -1.70840000      -0.33740000
C        1.33130000      -1.98230000       0.56380000
C        0.72830000      -0.72830000       1.14170000
C        1.34890000      -0.12690000       2.37450000
N       -0.74230000      -0.73830000       0.93400000
H        0.90870000       1.96420000      -0.54090000
H       -0.85130000       1.83180000      -0.64720000
H       -0.07300000       1.97850000       0.93240000
H       -0.59970000      -0.99630000      -1.77860000
H        0.94000000      -0.14660000      -2.02180000
H        1.04160000      -2.90070000      -1.46110000
H        1.42240000      -2.88860000       1.15870000
H        2.42400000       0.01980000       2.22700000
H        0.90540000       0.84060000       2.62690000
H        1.21670000      -0.78880000       3.23830000
H       -1.16580000      -0.08640000       1.59370000
