14
Properties=species:S:1:pos:R:3 gdb_20647=T pbc="F F F"
C       -0.02960000       1.52170000       0.05050000
C       -0.00040000       0.03260000      -0.05680000
C       -0.04120000      -0.82250000      -1.13650000
C        0.02210000      -2.12800000      -0.58540000
C        0.00980000      -3.39280000      -1.33710000
O        0.06460000      -4.50060000      -0.86150000
N        0.09770000      -2.08810000       0.75050000
N        0.08200000      -0.78360000       1.03460000
H        0.88110000       1.91380000       0.51730000
H       -0.11190000       1.96540000      -0.94340000
H       -0.88260000       1.86990000       0.64380000
H       -0.10750000      -0.54770000      -2.17740000
H       -0.05730000      -3.24010000      -2.43900000
H        0.13010000      -0.50090000       2.00110000
