18
Properties=species:S:1:pos:R:3 gdb_114726=T pbc="F F F"
O        0.35300000       1.09520000       0.43260000
C        0.05450000      -0.27570000       0.29790000
C       -1.42210000      -0.50530000      -0.09120000
C       -1.82130000      -1.96930000      -0.40610000
C       -2.77820000      -2.39110000       0.70410000
N       -2.15910000      -2.27050000       2.02720000
C       -3.11850000      -1.22010000       1.55490000
C       -2.33180000      -0.04430000       1.05470000
O       -2.37750000       1.08420000       1.49100000
H       -0.34540000       1.48830000       0.97410000
H        0.70010000      -0.66610000      -0.49690000
H        0.27600000      -0.84340000       1.21490000
H       -1.62400000       0.15080000      -0.94460000
H       -2.32370000      -2.03250000      -1.37580000
H       -0.95330000      -2.63580000      -0.43940000
H       -3.50000000      -3.18200000       0.52870000
H       -2.65080000      -2.85640000       2.69860000
H       -4.05780000      -1.07720000       2.07460000
