21
Properties=species:S:1:pos:R:3 gdb_82763=T pbc="F F F"
C       -0.00510000       1.59930000       0.02000000
C        0.06090000       0.07320000      -0.02700000
C        0.92500000      -0.55330000      -1.14870000
C        2.36480000      -0.16050000      -0.71630000
C        2.07870000      -1.12320000       0.45560000
C        1.24050000      -1.97780000      -0.54120000
C        0.15850000      -2.65090000       0.29950000
O        0.07700000      -1.83700000       1.48100000
C        0.78620000      -0.63530000       1.16390000
H        0.97270000       2.06480000       0.17210000
H       -0.42210000       2.00340000      -0.90930000
H       -0.65160000       1.92570000       0.84160000
H       -0.96510000      -0.30710000      -0.06480000
H        0.58010000      -0.43160000      -2.17680000
H        3.12460000      -0.56580000      -1.38990000
H        2.59100000       0.88720000      -0.50850000
H        2.85630000      -1.54950000       1.08890000
H        1.80310000      -2.62940000      -1.21000000
H       -0.81550000      -2.69700000      -0.20780000
H        0.43540000      -3.67030000       0.59360000
H        0.89030000      -0.05380000       2.08060000
