18
Properties=species:S:1:pos:R:3 gdb_53903=T pbc="F F F"
C        1.01870000      -0.38580000       0.19980000
C       -0.20590000       0.39830000      -0.21350000
O       -0.16830000       1.54850000      -0.56920000
C       -1.56870000      -0.35150000      -0.16910000
C       -1.69760000      -1.18640000      -1.36720000
C       -1.77570000      -1.88980000      -2.34060000
N       -1.71470000      -1.03610000       1.12470000
C       -2.84710000      -1.94270000       1.29520000
C       -1.45890000      -2.47240000       1.22760000
H        1.91170000       0.21670000       0.03140000
H        0.94120000      -0.65030000       1.25890000
H        1.08160000      -1.32130000      -0.36530000
H       -2.32620000       0.43820000      -0.20260000
H       -1.85640000      -2.49280000      -3.21170000
H       -3.36800000      -1.85960000       2.24450000
H       -3.48110000      -2.13270000       0.43190000
H       -1.18780000      -3.01500000       0.32560000
H       -0.94000000      -2.78130000       2.13020000
