16
Properties=species:S:1:pos:R:3 gdb_15976=T pbc="F F F"
O       -0.64900000       1.38340000       0.72050000
C        0.18920000       0.95700000      -0.03230000
C        1.52660000       1.63350000      -0.25350000
O        2.37350000       0.90070000      -1.15730000
C        2.41360000       1.99330000      -2.10790000
C        1.49810000       2.82900000      -1.21940000
C        0.34090000       3.70330000      -1.59300000
C        1.54990000       4.28830000      -0.89850000
H        0.03420000       0.04710000      -0.65490000
H        2.00590000       1.82700000       0.71570000
H        3.43230000       2.37890000      -2.23980000
H        2.00760000       1.69850000      -3.08390000
H        0.19370000       3.92540000      -2.64520000
H       -0.57390000       3.59920000      -1.01920000
H        1.44760000       4.58460000       0.14040000
H        2.22710000       4.90820000      -1.47790000
