20
Properties=species:S:1:pos:R:3 gdb_6291=T pbc="F F F"
C       -0.08140000       1.55300000      -0.11890000
C        0.04260000       0.02580000      -0.03790000
C        0.79620000      -0.52420000      -1.25610000
C        0.72730000      -0.44090000       1.26050000
C       -0.08380000      -0.13720000       2.53470000
O       -1.36170000      -0.71250000       2.48140000
C        0.66220000      -0.62930000       3.75570000
O        0.17390000      -1.42000000       4.52730000
H        0.90580000       2.03110000      -0.09280000
H       -0.56740000       1.85150000      -1.05330000
H       -0.67720000       1.96490000       0.70120000
H       -0.96700000      -0.40160000      -0.03540000
H        1.82060000      -0.13390000      -1.29650000
H        0.85690000      -1.61720000      -1.22860000
H        0.29740000      -0.23930000      -2.18810000
H        0.88440000      -1.52590000       1.21300000
H        1.71910000       0.02580000       1.34610000
H       -0.16400000       0.95950000       2.64900000
H       -1.42290000      -1.28550000       3.26220000
H        1.68610000      -0.22780000       3.90200000
