18
Properties=species:S:1:pos:R:3 gdb_119369=T pbc="F F F"
O       -0.07230000       1.42920000      -0.05270000
C        0.02300000       0.01730000       0.05250000
C       -1.39650000      -0.53860000      -0.03910000
C       -1.42450000      -2.03570000       0.02880000
C       -2.64100000      -3.02350000      -0.01300000
C       -1.37740000      -3.93850000      -0.03740000
N       -0.69520000      -2.94640000      -0.97950000
C       -0.84580000      -3.01870000       1.07680000
O       -0.33090000      -3.03790000       2.14700000
H        0.81390000       1.79500000       0.01930000
H        0.63660000      -0.41060000      -0.75390000
H        0.47410000      -0.28880000       1.00840000
H       -1.99520000      -0.13120000       0.78400000
H       -1.85930000      -0.18870000      -0.97000000
H       -3.32450000      -3.06940000       0.84090000
H       -3.17870000      -3.00340000      -0.96590000
H       -1.30730000      -5.01470000      -0.17570000
H       -1.24520000      -2.93000000      -1.84590000
