11
Properties=species:S:1:pos:R:3 gdb_42524=T pbc="F F F"
O       -0.02350000       0.02480000      -0.30290000
C        0.08090000       1.19080000      -0.16350000
C       -0.88110000       2.40850000      -0.01630000
O        0.26770000       3.27770000       0.08600000
C        1.24410000       2.22130000      -0.04190000
C        2.11350000       2.07950000       1.11860000
N        2.79220000       1.94710000       2.04410000
C       -1.73750000       2.69660000      -1.15930000
N       -2.40940000       2.90530000      -2.07560000
H       -1.46890000       2.39020000       0.90990000
H        1.83890000       2.31750000      -0.95880000
