18
Properties=species:S:1:pos:R:3 gdb_35796=T pbc="F F F"
N        0.10430000      -1.16030000       0.07550000
C        0.05630000      -0.00700000       0.02180000
C       -0.02640000       1.45430000       0.00870000
C       -0.83100000       1.97240000       1.23300000
N       -0.97450000       3.42380000       1.19420000
C        0.23670000       4.13730000       0.84590000
C        1.51040000       3.95110000       1.61290000
C        1.40970000       3.44320000       0.17740000
N        1.32120000       2.02440000      -0.07840000
H       -0.58280000       1.74540000      -0.89480000
H       -1.82750000       1.52260000       1.25740000
H       -0.31320000       1.67080000       2.15070000
H       -1.68560000       3.65900000       0.50860000
H        0.01850000       5.14800000       0.51820000
H        2.11680000       4.82790000       1.81140000
H        1.54200000       3.20050000       2.39570000
H        1.96230000       3.99480000      -0.58020000
H        1.96850000       1.49560000       0.49330000
