16
Properties=species:S:1:pos:R:3 gdb_42860=T pbc="F F F"
O        0.00090000       0.01370000      -0.02340000
C       -0.01480000       1.20480000       0.00520000
C       -1.10700000       2.28810000       0.08360000
N       -0.03340000       3.17800000       0.63480000
C        1.04930000       2.31720000       0.05610000
C        1.49630000       2.71920000      -1.33660000
C        0.66480000       3.03670000      -2.34210000
C       -0.80320000       3.01690000      -2.32340000
C       -1.60000000       2.67740000      -1.29720000
H       -1.93510000       2.10910000       0.77380000
H       -0.05120000       4.10950000       0.22780000
H        1.89940000       2.16090000       0.72500000
H        2.56770000       2.77760000      -1.50340000
H        1.11050000       3.34190000      -3.28490000
H       -1.28090000       3.30960000      -3.25440000
H       -2.67650000       2.70690000      -1.43650000
