20
Properties=species:S:1:pos:R:3 gdb_112654=T pbc="F F F"
C        0.60350000       1.46670000      -0.09530000
C        0.06800000       0.03160000       0.01170000
C        0.35790000      -0.86550000      -1.21190000
C        1.43790000      -1.85350000      -0.73030000
C        2.85190000      -1.53580000      -1.20890000
O        3.80490000      -2.40440000      -0.63830000
O        1.43170000      -1.78220000       0.71520000
C        0.71220000      -0.71230000       1.16890000
N        0.60280000      -0.38930000       2.38420000
H        1.67860000       1.47840000      -0.30350000
H        0.09710000       2.00670000      -0.90120000
H        0.43580000       1.99750000       0.84470000
H       -1.00630000       0.08380000       0.20760000
H       -0.53830000      -1.40670000      -1.52310000
H        0.70530000      -0.28780000      -2.07330000
H        1.20660000      -2.89220000      -0.98430000
H        2.90530000      -1.66880000      -2.29520000
H        3.08080000      -0.47840000      -0.99170000
H        3.66240000      -2.37590000       0.31510000
H        1.13380000      -1.02560000       2.98060000
