22
Properties=species:S:1:pos:R:3 gdb_89036=T pbc="F F F"
C       -0.42540000       1.28830000       0.11560000
N        0.01780000      -0.09690000       0.13860000
C        1.39430000      -0.36670000      -0.26130000
C        0.97170000      -0.55470000       1.15600000
C        1.52030000       0.31860000       2.26580000
C        0.58640000       0.39250000       3.47690000
C        1.15630000       1.19560000       4.64000000
C        0.29260000       1.27790000       5.88710000
O        2.23670000       1.73630000       4.57480000
H        0.34470000       2.02740000       0.38620000
H       -0.77050000       1.52500000      -0.89620000
H       -1.27570000       1.41230000       0.79510000
H        1.54700000      -1.21700000      -0.92150000
H        2.03930000       0.48770000      -0.46890000
H        0.75960000      -1.57530000       1.47840000
H        2.48510000      -0.08950000       2.58790000
H        1.73890000       1.32860000       1.90970000
H       -0.38280000       0.83200000       3.20330000
H        0.34230000      -0.61470000       3.84440000
H       -0.69140000       1.69590000       5.64730000
H        0.11920000       0.27550000       6.29510000
H        0.78340000       1.89780000       6.63810000
