14
Properties=species:S:1:pos:R:3 gdb_48666=T pbc="F F F"
O       -0.57480000       0.54430000      -0.68450000
C        0.09770000       0.94680000       0.22970000
C        1.31820000       1.78500000       0.04560000
C        1.58690000       2.89320000       1.03860000
N        2.38830000       1.67340000       1.05710000
C        3.64330000       1.80640000       0.31090000
O        4.71610000       1.85870000       0.84360000
C        3.30390000       1.87620000      -1.13360000
C        1.97440000       1.88890000      -1.28450000
H       -0.15010000       0.73560000       1.29160000
H        2.02840000       3.80230000       0.63840000
H        0.92020000       3.02510000       1.88710000
H        4.06190000       1.96470000      -1.89920000
H        1.41110000       1.92420000      -2.20700000
