12
Properties=species:S:1:pos:R:3 gdb_132812=T pbc="F F F"
O        0.08350000       1.37040000       0.09360000
C        0.05470000       0.02470000       0.04750000
C        0.04810000      -0.69380000      -1.14710000
F        0.07200000       0.02050000      -2.28700000
C        0.01820000      -2.07680000      -1.15370000
N       -0.00550000      -2.78880000      -0.02570000
C        0.00020000      -2.12440000       1.13240000
C        0.02950000      -0.74010000       1.21400000
F        0.03410000      -0.12460000       2.39460000
H        0.09740000       1.69940000      -0.81480000
H        0.01370000      -2.61060000      -2.09960000
H       -0.01920000      -2.70400000       2.05090000
