21
Properties=species:S:1:pos:R:3 gdb_73465=T pbc="F F F"
C        0.02280000       1.47270000      -0.05750000
C        0.03560000      -0.03970000      -0.02780000
C       -1.23100000      -0.68100000      -0.57950000
O       -1.22340000      -2.10800000      -0.55340000
C       -0.03200000      -2.67600000      -0.01580000
C        0.20690000      -2.14170000       1.40970000
C        0.72380000      -0.73870000       1.12240000
C        1.34180000      -0.76090000      -0.27050000
C        1.19130000      -2.17700000      -0.80910000
H        0.95370000       1.87980000       0.34900000
H       -0.08750000       1.85050000      -1.08100000
H       -0.80540000       1.87630000       0.53730000
H       -2.10140000      -0.32960000      -0.00440000
H       -1.38470000      -0.35530000      -1.61970000
H       -0.17940000      -3.75660000      -0.06400000
H       -0.71580000      -2.17080000       1.99720000
H        0.96560000      -2.73680000       1.93160000
H        1.15220000      -0.14160000       1.92030000
H        2.22780000      -0.18010000      -0.50400000
H        2.08030000      -2.77680000      -0.58100000
H        1.00700000      -2.23260000      -1.88630000
