21
Properties=species:S:1:pos:R:3 gdb_58628=T pbc="F F F"
C        0.75500000       0.09790000      -0.66240000
C       -0.03250000      -0.06960000       0.64050000
O       -0.03720000       1.14510000       1.37580000
C       -1.46860000      -0.57330000       0.43480000
C       -2.49570000      -0.13760000       1.39040000
O       -2.39220000       0.48500000       0.09420000
C       -1.65030000      -1.82660000      -0.42900000
C       -2.91690000      -2.63530000      -0.14740000
O       -1.59330000      -1.45550000      -1.80240000
H        1.75000000       0.48320000      -0.42480000
H        0.85370000      -0.83980000      -1.21250000
H        0.25400000       0.81350000      -1.32250000
H        0.48050000      -0.79660000       1.28360000
H       -0.60600000       1.75010000       0.88150000
H       -3.39290000      -0.73060000       1.54110000
H       -2.19570000       0.49520000       2.22020000
H       -0.77960000      -2.47410000      -0.26780000
H       -3.81260000      -2.02140000      -0.29080000
H       -2.96620000      -3.47050000      -0.85040000
H       -2.92600000      -3.03510000       0.87140000
H       -2.21030000      -0.71950000      -1.90340000
