17
Properties=species:S:1:pos:R:3 gdb_105132=T pbc="F F F"
C        0.21890000       1.37570000       0.28950000
N       -0.22360000       0.09030000      -0.23850000
C        0.60370000      -0.44570000      -1.28060000
C        1.98710000      -1.01370000      -0.98750000
C        0.84460000      -1.96280000      -1.30660000
C        0.28380000      -2.76520000      -0.25820000
N       -0.17700000      -3.38350000       0.60530000
C        0.42410000       0.18160000      -2.56940000
C        0.29680000       0.71390000      -3.63950000
H        1.23790000       1.36270000       0.71140000
H        0.19540000       2.12260000      -0.51010000
H       -0.47590000       1.69590000       1.06980000
H       -0.36880000      -0.58940000       0.49850000
H        2.76640000      -0.91650000      -1.73360000
H        2.31690000      -0.97610000       0.04440000
H        0.83840000      -2.42770000      -2.28530000
H        0.16820000       1.18420000      -4.58310000
