22
Properties=species:S:1:pos:R:3 gdb_13143=T pbc="F F F"
C        0.30010000       1.34820000      -0.15890000
O        0.09040000      -0.03310000      -0.00420000
C        0.78360000      -0.57590000       1.10120000
C        0.49150000      -2.06610000       1.15540000
C        1.18550000      -2.87150000       0.02010000
C        2.29110000      -3.29100000       1.02570000
C        1.34440000      -2.87820000       2.18840000
C        1.92570000      -2.21090000       3.42810000
H        1.36350000       1.58650000      -0.32410000
H       -0.27250000       1.67250000      -1.03170000
H       -0.04230000       1.91680000       0.72090000
H        1.86660000      -0.38630000       0.99640000
H        0.46130000      -0.08160000       2.03410000
H       -0.59200000      -2.19440000       1.23560000
H        0.58140000      -3.72160000      -0.30760000
H        1.48660000      -2.30120000      -0.86140000
H        2.63660000      -4.32780000       1.00180000
H        3.16870000      -2.63880000       0.96820000
H        0.75890000      -3.75160000       2.49730000
H        2.53280000      -1.33510000       3.17550000
H        1.13900000      -1.88480000       4.11790000
H        2.57140000      -2.90900000       3.97280000
