15
Properties=species:S:1:pos:R:3 gdb_31202=T pbc="F F F"
C       -0.00070000       1.42810000       0.16440000
N       -0.04290000       0.04140000      -0.27010000
C       -1.17420000      -0.71360000      -0.10440000
C       -1.34670000      -2.08890000       0.00160000
N       -2.69730000      -2.40000000       0.08230000
C       -3.31930000      -1.26070000       0.03590000
N       -2.44100000      -0.19600000      -0.07420000
C       -0.29590000      -3.03090000       0.03100000
N        0.62130000      -3.74150000       0.05480000
H        1.00890000       1.81170000       0.00870000
H       -0.67340000       2.04240000      -0.44560000
H       -0.26710000       1.56310000       1.22310000
H        0.80230000      -0.48690000      -0.10880000
H       -4.38690000      -1.11090000       0.08280000
H       -2.68530000       0.77690000      -0.14790000
