20
Properties=species:S:1:pos:R:3 gdb_65931=T pbc="F F F"
C       -0.12360000       1.55740000       0.09610000
C       -0.03080000       0.02620000       0.03390000
C        1.13450000      -0.48660000      -0.88750000
C        1.99760000      -0.77190000       0.37320000
C        0.73830000      -0.60580000       1.23040000
C        0.61410000      -0.26040000       2.68300000
C        0.18690000      -1.62200000       2.18440000
C       -1.34050000      -0.55580000      -0.23780000
N       -2.37840000      -1.02790000      -0.43310000
H        0.86360000       1.98140000       0.30030000
H       -0.48660000       1.96280000      -0.85290000
H       -0.80480000       1.87970000       0.88840000
H        0.86170000      -1.39480000      -1.42650000
H        1.51380000       0.25010000      -1.59840000
H        2.48420000      -1.74900000       0.41180000
H        2.75220000      -0.00130000       0.55760000
H        1.52790000      -0.18420000       3.26410000
H       -0.16260000       0.43590000       2.98330000
H       -0.87540000      -1.83950000       2.14000000
H        0.81140000      -2.47700000       2.42330000
