14
Properties=species:S:1:pos:R:3 gdb_25446=T pbc="F F F"
O       -0.09020000      -0.04770000      -0.00160000
C       -0.03420000       1.15250000       0.00770000
N        1.15580000       1.87740000       0.00060000
C        2.43490000       1.33090000      -0.01860000
C        3.32710000       2.35670000      -0.01990000
C        2.58060000       3.59670000      -0.00070000
C        1.25000000       3.25870000       0.01160000
C        3.12020000       4.90340000       0.00440000
C        3.60050000       6.00780000       0.00850000
H       -0.91580000       1.81750000       0.02400000
H        2.55400000       0.26120000      -0.02920000
H        4.40240000       2.27400000      -0.03280000
H        0.36760000       3.87690000       0.02710000
H        4.01830000       6.98380000       0.01210000
