15
Properties=species:S:1:pos:R:3 gdb_18816=T pbc="F F F"
O        0.00630000       0.01960000       0.14890000
C       -0.01810000       1.21440000       0.02530000
C       -1.26480000       2.11410000      -0.03560000
C       -0.68470000       3.46780000      -0.37730000
C        0.42460000       4.06250000       0.41370000
C        1.20680000       3.03420000       1.21740000
C        1.16870000       2.15800000      -0.07410000
N        0.71300000       3.35620000      -0.89580000
H       -1.93950000       1.75380000      -0.81880000
H       -1.81120000       2.07060000       0.91220000
H       -1.29080000       4.16650000      -0.94450000
H        0.52920000       5.13920000       0.50790000
H        2.22380000       3.37510000       1.41830000
H        0.77490000       2.63470000       2.14040000
H        2.09290000       1.69470000      -0.41050000
