17
Properties=species:S:1:pos:R:3 gdb_27055=T pbc="F F F"
C       -0.00960000       1.50580000       0.04640000
C        0.00830000       0.01400000      -0.01110000
C        0.01440000      -0.86300000      -1.08170000
N       -0.01010000      -0.46220000      -2.42880000
C       -0.07230000      -1.26890000      -3.52650000
O       -0.11580000      -2.48060000      -3.52620000
C        0.05620000      -2.19570000      -0.57700000
C        0.07980000      -2.09460000       0.79250000
N        0.05360000      -0.76540000       1.12410000
H        0.99280000       1.94710000       0.12940000
H       -0.47820000       1.92860000      -0.84850000
H       -0.59500000       1.86410000       0.90090000
H        0.03230000       0.52850000      -2.60940000
H       -0.07630000      -0.66550000      -4.45650000
H        0.06090000      -3.09150000      -1.17110000
H        0.10610000      -2.85780000       1.55310000
H        0.05380000      -0.40160000       2.06050000
