25
Properties=species:S:1:pos:R:3 gdb_87962=T pbc="F F F"
C        0.12920000       1.53970000      -0.30850000
C        0.09720000       0.04480000      -0.08080000
C        1.37340000      -0.76210000      -0.05170000
C        0.55810000      -0.59030000       1.21070000
C        1.11260000       0.22210000       2.39840000
C        0.57430000      -0.49390000       3.65570000
C        0.36510000      -1.95410000       3.21370000
C       -0.49750000      -2.78900000       4.15640000
C       -0.20870000      -1.78090000       1.79540000
H        1.02450000       1.99490000       0.12630000
H        0.13170000       1.77160000      -1.37950000
H       -0.74260000       2.03490000       0.13530000
H       -0.75350000      -0.45010000      -0.54660000
H        1.39000000      -1.73640000      -0.53130000
H        2.31060000      -0.21610000      -0.12350000
H        2.20840000       0.20700000       2.39250000
H        0.81270000       1.27410000       2.37080000
H        1.24020000      -0.39710000       4.51870000
H       -0.39490000      -0.06830000       3.94820000
H        1.35390000      -2.42710000       3.12510000
H       -1.49460000      -2.34630000       4.26730000
H       -0.62720000      -3.81070000       3.78330000
H       -0.05030000      -2.85500000       5.15430000
H       -1.28060000      -1.54580000       1.86930000
H       -0.12080000      -2.68430000       1.18300000
