19
Properties=species:S:1:pos:R:3 gdb_121572=T pbc="F F F"
C        0.09760000       1.44830000       0.00900000
C        0.03730000      -0.00320000       0.00150000
C       -0.03360000      -1.20820000      -0.00430000
C       -0.10530000      -2.65690000      -0.01150000
O       -1.16580000      -3.24600000      -0.00490000
C        1.23850000      -3.37120000      -0.02770000
C        1.11750000      -4.89310000      -0.03520000
C        2.47560000      -5.58090000      -0.05120000
O        2.25170000      -6.98200000      -0.05690000
H        1.13120000       1.80930000       0.00070000
H       -0.41370000       1.86180000      -0.86710000
H       -0.39620000       1.85180000       0.89970000
H        1.79540000      -3.00570000      -0.90230000
H        1.81120000      -3.01560000       0.84070000
H        0.55650000      -5.22740000       0.84300000
H        0.54080000      -5.21760000      -0.90680000
H        3.04540000      -5.26460000      -0.94130000
H        3.06140000      -5.27440000       0.83190000
H        3.10570000      -7.42360000      -0.06770000
