19
Properties=species:S:1:pos:R:3 gdb_41531=T pbc="F F F"
C       -0.01110000       1.46050000      -0.17440000
C        1.51970000       1.51080000       0.15300000
C        1.37240000       0.09450000       0.67520000
C        1.86490000      -0.63770000       1.66260000
C        1.23810000      -1.95950000       2.04260000
O        0.46390000      -2.51980000       0.98780000
C       -0.85310000      -2.06230000       0.86300000
O       -0.97650000      -0.66480000       0.73800000
C        0.04730000      -0.08450000      -0.04300000
H       -0.61060000       1.88050000       0.63560000
H       -0.34210000       1.87110000      -1.13010000
H        2.13000000       1.57280000      -0.75460000
H        1.86450000       2.27520000       0.85340000
H        2.71950000      -0.31030000       2.25090000
H        2.01800000      -2.69700000       2.26600000
H        0.62710000      -1.85380000       2.95500000
H       -1.23350000      -2.57810000      -0.03080000
H       -1.46570000      -2.32390000       1.73890000
H        0.13410000      -0.58330000      -1.01990000
