20
Properties=species:S:1:pos:R:3 gdb_57473=T pbc="F F F"
C        0.02080000       1.57200000      -0.00470000
C        0.02880000       0.03900000       0.06430000
C        0.76050000      -0.45460000       1.31370000
O       -1.30610000      -0.46120000       0.17590000
C        0.68280000      -0.54000000      -1.20670000
C        0.63290000      -2.06640000      -1.43850000
O       -0.10840000      -1.85550000      -2.68610000
C       -0.16200000      -0.50190000      -2.46850000
N       -0.77230000       0.40220000      -3.09330000
H        1.03920000       1.97410000      -0.00560000
H       -0.47590000       1.91290000      -0.91830000
H       -0.50960000       1.97480000       0.86290000
H        0.28900000      -0.03870000       2.20830000
H        0.71620000      -1.54510000       1.38680000
H        1.81030000      -0.14740000       1.29840000
H       -1.82590000      -0.05220000      -0.52700000
H        1.67780000      -0.11240000      -1.35710000
H        1.57960000      -2.57580000      -1.62770000
H        0.01840000      -2.61970000      -0.72620000
H       -1.28390000       0.02220000      -3.89200000
