18
Properties=species:S:1:pos:R:3 gdb_20896=T pbc="F F F"
C        0.17100000       1.51830000       0.08530000
C       -0.09350000       0.02750000      -0.12880000
N        0.66600000      -0.52200000      -1.23830000
C        1.75610000      -1.32570000      -1.19220000
C        2.15710000      -1.53320000      -2.49440000
C        1.23440000      -0.79990000      -3.27700000
C        1.17310000      -0.66510000      -4.76650000
N        0.33580000      -0.18830000      -2.50410000
H        1.22280000       1.69840000       0.32690000
H       -0.07580000       2.07640000      -0.82070000
H       -0.44310000       1.89650000       0.90840000
H        0.17220000      -0.54980000       0.76150000
H       -1.15460000      -0.14440000      -0.33350000
H        2.14960000      -1.68310000      -0.25310000
H        2.98720000      -2.13240000      -2.83290000
H        1.03440000      -1.63720000      -5.25260000
H        0.33880000      -0.01880000      -5.04720000
H        2.09570000      -0.23160000      -5.16830000
