19
Properties=species:S:1:pos:R:3 gdb_30916=T pbc="F F F"
C       -0.10910000       1.42560000       0.13150000
N       -0.04070000      -0.02340000       0.10020000
C       -0.01930000      -0.81650000      -1.00280000
N        0.06000000      -2.09370000      -0.70440000
C        0.09100000      -2.14540000       0.67150000
C        0.18530000      -3.45580000       1.38590000
C        0.03280000      -0.87110000       1.19780000
C       -0.00390000      -0.35990000       2.59580000
O       -1.22870000       0.30770000       2.92260000
H        0.86210000       1.86420000       0.38680000
H       -0.40560000       1.78920000      -0.85430000
H       -0.84360000       1.74140000       0.87480000
H       -0.07290000      -0.40130000      -1.99950000
H        1.13240000      -3.95870000       1.16120000
H        0.11860000      -3.33460000       2.47040000
H       -0.61720000      -4.12900000       1.06680000
H        0.19140000      -1.19250000       3.28490000
H        0.77500000       0.39060000       2.77430000
H       -1.94460000      -0.29940000       2.70450000
