18
Properties=species:S:1:pos:R:3 gdb_83804=T pbc="F F F"
O        0.11160000       1.39960000      -0.02020000
C        0.08160000       0.00220000       0.04070000
C       -0.45810000      -0.71690000       1.25890000
O       -0.97020000      -0.02230000       2.35550000
C       -1.93190000       1.01440000       2.10700000
C       -2.99020000       0.61660000       1.09510000
C       -2.92870000       1.15510000      -0.29970000
N       -2.57960000      -0.23370000      -0.02430000
C       -1.24310000      -0.75750000      -0.03670000
H        0.73580000       1.70690000       0.64630000
H        0.90180000      -0.48600000      -0.48820000
H        0.04680000      -1.61030000       1.61180000
H       -2.39590000       1.19560000       3.07960000
H       -1.41770000       1.92820000       1.79560000
H       -3.95560000       0.34020000       1.51350000
H       -3.84640000       1.28090000      -0.86870000
H       -2.13470000       1.85800000      -0.52510000
H       -1.18360000      -1.67220000      -0.62040000
