18
Properties=species:S:1:pos:R:3 gdb_112530=T pbc="F F F"
N        0.19360000       1.44750000       0.21410000
C        0.09220000       0.01830000       0.07610000
C       -1.35280000      -0.56840000       0.09160000
C       -2.53820000       0.32250000       0.44170000
O       -3.73940000      -0.26960000      -0.02540000
N       -1.25820000      -0.83810000      -1.37000000
C        0.20790000      -0.64570000      -1.36490000
C        0.72470000       0.20750000      -2.43140000
N        1.14840000       0.92470000      -3.23330000
H        1.16500000       1.74060000       0.20900000
H       -0.26040000       1.93200000      -0.55390000
H        0.76630000      -0.44500000       0.79770000
H       -1.40620000      -1.48660000       0.69100000
H       -2.63260000       0.42580000       1.52680000
H       -2.40240000       1.32850000       0.02330000
H       -3.66980000      -0.28840000      -0.98720000
H       -1.55500000      -1.76010000      -1.66820000
H        0.79290000      -1.57410000      -1.33950000
