22
Properties=species:S:1:pos:R:3 gdb_78227=T pbc="F F F"
C       -0.08630000       1.56400000       0.06170000
C        0.07300000       0.06770000      -0.09860000
C        0.62190000      -0.65930000      -1.26400000
N        1.32840000      -0.69020000       0.09370000
C        2.45490000       0.11840000      -0.51220000
C        3.80280000      -0.51980000      -0.22850000
C        1.81840000       0.00300000      -1.94020000
C        2.52700000      -0.93390000      -2.91330000
O        1.48580000       1.22220000      -2.59320000
H        0.57010000       2.13470000      -0.59280000
H       -1.11630000       1.83990000      -0.18720000
H        0.09120000       1.85690000       1.10290000
H       -0.73370000      -0.48750000       0.38010000
H        0.13470000      -1.54420000      -1.66620000
H        2.46350000       1.15400000      -0.15760000
H        3.81540000      -1.57960000      -0.49510000
H        4.60490000      -0.01170000      -0.77530000
H        4.02510000      -0.44840000       0.84080000
H        2.71210000      -1.91730000      -2.47470000
H        1.90370000      -1.06590000      -3.80320000
H        3.49240000      -0.52020000      -3.22880000
H        2.26450000       1.52570000      -3.07290000
