11
Properties=species:S:1:pos:R:3 gdb_129225=T pbc="F F F"
N       -0.12850000       1.34130000       0.00840000
C        0.02680000       0.08530000       0.00110000
N       -1.12020000      -0.73590000       0.00300000
N       -1.14300000      -2.05450000      -0.00360000
N       -0.03760000      -2.69490000      -0.01290000
C        1.12530000      -1.91690000      -0.01530000
N        1.22530000      -0.63060000      -0.00910000
C        2.33960000      -2.69920000      -0.02570000
N        3.30990000      -3.32620000      -0.03410000
H        0.78020000       1.80220000       0.00590000
H       -2.03030000      -0.29170000       0.01030000
