18
Properties=species:S:1:pos:R:3 gdb_12239=T pbc="F F F"
C        0.15960000       1.37280000      -0.30150000
C       -0.05550000      -0.13760000      -0.17210000
C       -1.48180000      -0.51170000       0.22500000
C       -2.51960000      -0.44280000      -0.94810000
C       -2.27320000      -1.94660000      -1.11570000
O       -2.18980000      -2.68700000      -2.05670000
C       -1.72390000      -2.07200000       0.30400000
O       -0.67500000      -2.96300000       0.53110000
H        1.19220000       1.60070000      -0.58260000
H       -0.49520000       1.81100000      -1.06240000
H       -0.04860000       1.88300000       0.64550000
H        0.20180000      -0.62890000      -1.12060000
H        0.63130000      -0.55260000       0.57370000
H       -1.78230000       0.02180000       1.12980000
H       -3.53580000      -0.21910000      -0.61180000
H       -2.28190000       0.17820000      -1.81410000
H       -2.53650000      -2.26810000       1.01700000
H       -0.44350000      -3.35350000      -0.32090000
