19
Properties=species:S:1:pos:R:3 gdb_113731=T pbc="F F F"
C        0.44200000       1.54480000       0.06430000
C       -0.27240000       0.19580000      -0.09200000
C        0.19890000      -0.53560000      -1.32560000
O        1.49840000      -1.15600000      -1.30840000
C        0.35800000      -1.98680000      -1.50460000
C        0.08810000      -3.09960000      -0.49530000
N        0.72310000      -4.32700000      -0.99380000
C        0.50840000      -2.78180000       0.88430000
N        0.84650000      -2.63420000       1.98010000
H        1.52020000       1.39690000       0.17410000
H        0.27660000       2.18770000      -0.80730000
H        0.07980000       2.07710000       0.94800000
H       -0.11590000      -0.40920000       0.80230000
H       -1.35440000       0.35550000      -0.19080000
H        0.01810000       0.01860000      -2.25120000
H        0.25530000      -2.38580000      -2.51530000
H       -0.99510000      -3.27790000      -0.47670000
H        1.73270000      -4.20320000      -0.99840000
H        0.52980000      -5.09850000      -0.36180000
