19
Properties=species:S:1:pos:R:3 gdb_94794=T pbc="F F F"
O        0.09760000       1.39360000       0.12450000
C       -0.00860000       0.00160000       0.02060000
C       -1.43650000      -0.55440000      -0.05330000
C       -1.23170000      -1.96690000      -0.65830000
C       -0.09650000      -1.77300000      -1.66180000
C        0.66570000      -2.89190000      -2.34510000
C       -0.24020000      -2.03010000      -3.15720000
C        0.62690000      -0.53370000      -1.26280000
O        1.51970000       0.03570000      -1.85160000
H        0.83310000       1.64150000      -0.45570000
H        0.51700000      -0.49930000       0.85800000
H       -1.94230000      -0.57180000       0.91400000
H       -2.02070000       0.07630000      -0.73270000
H       -0.93510000      -2.67220000       0.12780000
H       -2.14290000      -2.35880000      -1.11730000
H        1.73560000      -2.75110000      -2.45560000
H        0.35210000      -3.90440000      -2.11360000
H       -1.18890000      -2.43770000      -3.48900000
H        0.21170000      -1.29480000      -3.81390000
