20
Properties=species:S:1:pos:R:3 gdb_80968=T pbc="F F F"
C        0.07340000       1.50670000       0.22430000
N        0.14790000       0.06630000       0.04070000
C       -1.00730000      -0.78310000       0.51170000
C       -0.02710000      -1.98020000       0.40170000
C        0.73090000      -0.83130000       1.13320000
C        2.16450000      -0.75900000       1.56720000
C       -0.56150000      -0.65050000       2.00630000
C       -0.77210000       0.53990000       2.90040000
O        0.08390000       0.99070000       3.62530000
H        1.08630000       1.92030000       0.25700000
H       -0.43590000       1.93750000      -0.64480000
H       -0.45900000       1.85950000       1.12200000
H       -2.00750000      -0.68640000       0.08650000
H       -0.25570000      -2.87560000       0.98230000
H        0.32190000      -2.19210000      -0.60840000
H        2.82860000      -0.83060000       0.70010000
H        2.36320000       0.17690000       2.09640000
H        2.39660000      -1.58270000       2.24970000
H       -0.82420000      -1.52590000       2.61930000
H       -1.81230000       0.94180000       2.92590000
