17
Properties=species:S:1:pos:R:3 gdb_45907=T pbc="F F F"
O        0.08230000      -0.19200000       0.20430000
C       -0.05900000       1.00590000       0.01500000
N       -1.34930000       1.52770000       0.19160000
C       -1.90790000       2.75020000      -0.18750000
C       -1.43110000       3.95050000       0.14650000
C       -0.23790000       4.12790000       1.04120000
N        1.04560000       4.14360000       0.35070000
C        1.51580000       3.08110000      -0.35520000
C        1.07540000       1.80730000      -0.48330000
H       -1.99380000       0.76110000       0.32960000
H       -2.81810000       2.66560000      -0.77900000
H       -1.92050000       4.83310000      -0.25170000
H       -0.31340000       5.06260000       1.60310000
H       -0.21310000       3.30710000       1.76900000
H        1.42920000       5.04310000       0.11650000
H        2.45910000       3.30750000      -0.84740000
H        1.77490000       1.14390000      -0.97940000
