18
Properties=species:S:1:pos:R:3 gdb_119817=T pbc="F F F"
C        0.00430000       1.33410000      -0.23040000
O       -0.00040000      -0.07340000      -0.14660000
C       -1.26350000      -0.59740000       0.21640000
C       -1.18360000      -2.08650000       0.18750000
C       -1.67850000      -2.99850000       1.03310000
C       -1.38520000      -4.37090000       0.48700000
C       -0.58430000      -4.08500000      -0.79820000
O       -0.06770000      -4.87050000      -1.55690000
N       -0.56900000      -2.70460000      -0.91390000
H        1.00960000       1.63820000      -0.52960000
H       -0.71830000       1.69960000      -0.97690000
H       -0.23580000       1.79960000       0.73770000
H       -1.56800000      -0.26080000       1.21910000
H       -2.03060000      -0.24430000      -0.49650000
H       -2.22140000      -2.78610000       1.94170000
H       -0.78820000      -5.00190000       1.15500000
H       -2.28380000      -4.94710000       0.23460000
H        0.02020000      -2.21290000      -1.56620000
