18
Properties=species:S:1:pos:R:3 gdb_16889=T pbc="F F F"
C        0.05850000       1.52630000       0.00840000
C       -0.02950000       0.02760000      -0.01900000
C       -0.02680000      -0.67780000      -1.15620000
C       -0.08350000      -2.15860000      -1.15650000
O        0.87370000      -2.86520000      -0.32320000
C       -0.49440000      -2.85370000       0.07480000
C       -0.85710000      -2.01160000       1.27610000
C       -0.07300000      -0.68500000       1.31600000
H        0.94100000       1.85860000       0.57100000
H        0.11920000       1.94900000      -0.99800000
H       -0.81220000       1.96330000       0.51450000
H        0.02170000      -0.17590000      -2.11860000
H       -0.25270000      -2.64390000      -2.11560000
H       -1.00140000      -3.81620000      -0.00980000
H       -1.93560000      -1.81050000       1.22550000
H       -0.68500000      -2.57210000       2.20170000
H        0.95630000      -0.89110000       1.63480000
H       -0.50410000      -0.02790000       2.07980000
