19
Properties=species:S:1:pos:R:3 gdb_78173=T pbc="F F F"
C        0.04040000       1.60420000      -0.02040000
C        0.02260000       0.07370000       0.02020000
C        0.62510000      -0.61870000      -1.22120000
C        1.25830000      -1.91660000      -0.71160000
O        1.48650000      -2.90130000      -1.37110000
C        1.50050000      -1.79050000       0.76250000
C        2.24980000      -0.54260000       1.22800000
O        2.95530000       0.27960000       0.34570000
C        0.76530000      -0.52670000       1.22400000
H        1.06460000       1.97620000      -0.10530000
H       -0.53560000       1.97790000      -0.87360000
H       -0.40180000       2.02650000       0.88850000
H       -1.01980000      -0.25740000       0.11260000
H       -0.10650000      -0.83720000      -2.00220000
H        1.42020000      -0.01130000      -1.66650000
H        1.59210000      -2.70130000       1.34150000
H        2.72190000      -0.65630000       2.20380000
H        3.77530000      -0.16680000       0.10730000
H        0.26050000      -0.50020000       2.18410000
