18
Properties=species:S:1:pos:R:3 gdb_105359=T pbc="F F F"
O        0.18670000       1.31840000      -0.17850000
C        0.11770000      -0.07280000       0.06780000
C       -1.32130000      -0.58430000       0.06260000
C       -2.12870000      -0.48560000      -1.30600000
C       -2.30560000      -2.00360000      -1.27480000
N       -0.94160000      -2.57670000      -1.27490000
C       -1.54210000      -2.11440000      -0.00190000
C       -2.15380000       0.04120000       1.14900000
O       -1.79880000       0.96110000       1.84970000
H       -0.24220000       1.73890000       0.57730000
H        0.67130000      -0.57190000      -0.73030000
H        0.59190000      -0.33980000       1.02580000
H       -3.06610000       0.06730000      -1.20890000
H       -1.54950000      -0.08220000      -2.13800000
H       -3.15040000      -2.58000000      -1.62990000
H       -1.03830000      -3.59180000      -1.29120000
H       -1.65710000      -2.79290000       0.83480000
H       -3.17220000      -0.39450000       1.26850000
