20
Properties=species:S:1:pos:R:3 gdb_91872=T pbc="F F F"
C       -0.01770000       1.59130000      -0.00860000
C       -0.03320000       0.06310000      -0.09140000
C        0.96860000      -0.48600000      -1.13040000
C        0.77800000      -1.98600000      -1.20540000
C        1.85170000      -2.97150000      -0.85370000
N        0.78740000      -2.66050000       0.08780000
C        1.03350000      -1.89870000       1.23540000
O        1.77570000      -2.26410000       2.11720000
C        0.25440000      -0.58350000       1.29110000
H        0.97480000       1.95720000       0.27930000
H       -0.27660000       2.04380000      -0.97160000
H       -0.73350000       1.95430000       0.73620000
H       -1.03370000      -0.25010000      -0.41770000
H        0.80880000      -0.02420000      -2.10990000
H        1.99300000      -0.24160000      -0.81920000
H       -0.01500000      -2.32310000      -1.87200000
H        1.82930000      -3.97000000      -1.28050000
H        2.84300000      -2.59360000      -0.61660000
H        0.85270000       0.08390000       1.91890000
H       -0.68010000      -0.76000000       1.83630000
