25
Properties=species:S:1:pos:R:3 gdb_40283=T pbc="F F F"
C       -0.07980000       1.57230000      -0.00210000
C        1.28610000       0.92950000      -0.00110000
C        0.04610000       0.06510000       0.00030000
C       -0.33290000      -0.66990000       1.28180000
C        0.64530000      -1.75910000       1.77350000
C        1.32030000      -2.63020000       0.69590000
C        0.45440000      -3.01440000      -0.51740000
C        0.42980000      -1.93850000      -1.61550000
C       -0.34250000      -0.65130000      -1.28870000
H       -0.41440000       2.06080000       0.90730000
H       -0.41360000       2.05820000      -0.91330000
H        1.87640000       0.98280000      -0.91050000
H        1.87570000       0.98710000       0.90830000
H       -0.46200000       0.05370000       2.09520000
H       -1.32450000      -1.11510000       1.12760000
H        1.43710000      -1.28960000       2.36980000
H        0.09600000      -2.40480000       2.47020000
H        2.21270000      -2.11390000       0.32070000
H        1.68930000      -3.54020000       1.18350000
H        0.85960000      -3.93340000      -0.95730000
H       -0.56830000      -3.25990000      -0.19990000
H        1.46880000      -1.68130000      -1.86330000
H       -0.00170000      -2.36620000      -2.52930000
H       -1.41620000      -0.88280000      -1.23600000
H       -0.22470000       0.04000000      -2.13250000
