14
Properties=species:S:1:pos:R:3 gdb_8998=T pbc="F F F"
N       -0.58100000       0.89950000      -0.70890000
C       -0.16940000      -0.08110000      -0.00130000
N       -1.01330000      -0.79860000       0.80340000
C       -2.37310000      -0.34630000       1.00430000
C       -3.22970000      -0.50200000      -0.25420000
O       -4.31960000      -0.01240000      -0.36400000
C        1.26460000      -0.56630000      -0.00050000
O        2.12200000      -0.04350000      -0.66000000
H        0.20140000       1.26420000      -1.25450000
H       -0.60750000      -1.42010000       1.48250000
H       -2.83100000      -0.95120000       1.79380000
H       -2.41570000       0.70610000       1.31020000
H       -2.77630000      -1.14110000      -1.04280000
H        1.48390000      -1.44260000       0.65130000
