19
Properties=species:S:1:pos:R:3 gdb_24428=T pbc="F F F"
C       -0.00960000       1.52640000      -0.01480000
C        1.44080000       2.04930000       0.01640000
N        2.19750000       1.66270000       1.21080000
C        1.93210000       0.33710000       1.62600000
C        0.95120000      -0.45320000       1.06560000
C       -0.03540000      -0.01590000       0.03320000
N        1.03150000      -1.69060000       1.66800000
C        2.03370000      -1.68560000       2.60610000
C        2.61930000      -0.44030000       2.60340000
H       -0.55440000       1.92730000       0.84870000
H       -0.51610000       1.88860000      -0.91570000
H        1.97280000       1.65970000      -0.86310000
H        1.45650000       3.14070000      -0.06040000
H        2.06690000       2.32780000       1.96450000
H       -1.04850000      -0.36690000       0.26970000
H        0.20470000      -0.42280000      -0.96080000
H        0.45180000      -2.48030000       1.44620000
H        2.25380000      -2.56610000       3.18810000
H        3.44610000      -0.12180000       3.21940000
