18
Properties=species:S:1:pos:R:3 gdb_109371=T pbc="F F F"
O        0.01670000       1.41110000      -0.03440000
C       -0.01120000      -0.00430000      -0.08020000
C       -1.43730000      -0.48000000      -0.02690000
C       -2.49190000       0.34280000       0.05310000
C       -3.90860000      -0.14470000       0.06320000
N       -4.00010000      -1.49750000      -0.46820000
C       -3.07510000      -2.42220000       0.17380000
C       -1.63650000      -1.94470000       0.00020000
O       -0.70440000      -2.72530000      -0.03700000
H        0.93490000       1.69090000      -0.07660000
H        0.45590000      -0.39320000      -0.99860000
H        0.54600000      -0.45220000       0.75710000
H       -2.32840000       1.41370000       0.11700000
H       -4.29780000      -0.04600000       1.09980000
H       -4.52610000       0.51960000      -0.55370000
H       -4.95040000      -1.84170000      -0.39470000
H       -3.24110000      -2.54250000       1.26500000
H       -3.16070000      -3.41370000      -0.27750000
