23
Properties=species:S:1:pos:R:3 gdb_96135=T pbc="F F F"
C        0.00170000       1.57070000       0.02720000
C       -0.00920000       0.03550000       0.03450000
C        0.58260000      -0.50100000      -1.28850000
C        0.78900000      -2.02220000      -1.38560000
C        1.95850000      -2.57190000      -0.54720000
C        1.95930000      -2.12590000       0.91160000
C        0.57410000      -2.00990000       1.57950000
C        0.72720000      -0.50510000       1.27350000
O        2.14630000      -0.68690000       1.01990000
H        1.03100000       1.94660000       0.03170000
H       -0.49600000       1.96830000      -0.86330000
H       -0.50820000       1.97820000       0.90650000
H       -1.05340000      -0.30230000       0.11490000
H       -0.08110000      -0.18180000      -2.10120000
H        1.54440000      -0.00320000      -1.45950000
H       -0.14190000      -2.53790000      -1.11630000
H        0.97410000      -2.28300000      -2.43420000
H        1.95500000      -3.66940000      -0.58550000
H        2.91000000      -2.24560000      -0.98640000
H        2.73100000      -2.65920000       1.47810000
H       -0.26170000      -2.54450000       1.12510000
H        0.60140000      -2.22280000       2.64960000
H        0.56810000       0.16290000       2.12830000
