18
Properties=species:S:1:pos:R:3 gdb_74680=T pbc="F F F"
C        0.07600000       1.50450000       0.05400000
C       -0.02210000       0.01190000       0.02660000
C        0.09340000      -0.78560000      -1.03730000
C       -0.04430000      -2.24830000      -0.69800000
N        1.20140000      -3.01460000      -0.93910000
C        1.65920000      -3.27850000       0.21160000
O        0.98640000      -2.89500000       1.32480000
C       -0.22510000      -2.24760000       0.85280000
C       -0.29640000      -0.77510000       1.29300000
H        0.88380000       1.83280000       0.72030000
H        0.26580000       1.91600000      -0.94060000
H       -0.84700000       1.95560000       0.44030000
H        0.29140000      -0.45250000      -2.04960000
H       -0.86370000      -2.73010000      -1.24270000
H        2.58430000      -3.80750000       0.41520000
H       -1.06500000      -2.84350000       1.21650000
H        0.43310000      -0.56990000       2.08540000
H       -1.28290000      -0.53010000       1.70860000
