19
Properties=species:S:1:pos:R:3 gdb_65949=T pbc="F F F"
N       -0.11520000       1.48740000      -0.00040000
C       -0.02110000       0.02920000      -0.04050000
C        0.21510000      -0.54130000       1.39680000
C       -1.31620000      -0.77200000       1.53500000
C       -1.42600000      -0.61700000       0.01480000
C       -2.60850000      -0.30390000      -0.84650000
C       -1.93730000      -1.65600000      -0.93800000
C        0.87540000      -0.46380000      -1.09530000
N        1.57320000      -0.82560000      -1.94470000
H        0.81350000       1.89330000       0.08180000
H       -0.51050000       1.83540000      -0.86970000
H        0.77950000      -1.47490000       1.37410000
H        0.68560000       0.15920000       2.08820000
H       -1.62830000      -1.73120000       1.95320000
H       -1.80990000       0.03680000       2.07830000
H       -3.57790000      -0.23460000      -0.36370000
H       -2.47880000       0.38190000      -1.67830000
H       -1.34860000      -1.87330000      -1.82350000
H       -2.44890000      -2.51470000      -0.51550000
