21
Properties=species:S:1:pos:R:3 gdb_110325=T pbc="F F F"
C       -0.45460000       1.05630000       0.02810000
O        0.35990000      -0.07530000      -0.23610000
C        0.88940000      -0.63450000       0.93910000
C        0.16360000      -1.68030000       1.73640000
C       -0.61680000      -2.61400000       0.79930000
O       -1.73400000      -2.10240000       0.11290000
C        0.69120000      -2.90950000      -0.00620000
C        1.47660000      -2.00080000       0.94870000
C        2.86280000      -2.29720000       1.44770000
H        0.11040000       1.84120000       0.55120000
H       -0.78800000       1.44510000      -0.93710000
H       -1.32960000       0.78690000       0.63570000
H        1.43350000       0.09390000       1.54380000
H        0.00030000      -1.57820000       2.80420000
H       -0.96800000      -3.50360000       1.32740000
H       -1.39560000      -1.38950000      -0.44130000
H        0.99690000      -3.95710000       0.05590000
H        0.68030000      -2.60380000      -1.05600000
H        3.59910000      -2.20380000       0.64010000
H        3.15820000      -1.60990000       2.24700000
H        2.93160000      -3.31790000       1.84060000
