18
Properties=species:S:1:pos:R:3 gdb_80108=T pbc="F F F"
C       -0.21300000       1.46250000      -0.02330000
N        0.07430000       0.03920000       0.04470000
C        1.40840000      -0.51320000      -0.21260000
C        2.59440000       0.38710000      -0.12710000
C        2.72420000       0.91500000       1.09300000
C        1.67880000       0.39300000       2.05030000
C        0.80070000      -0.52890000       1.18320000
C        0.22790000      -1.69270000       1.80090000
C       -0.22890000      -2.65800000       2.35390000
H        0.61600000       2.12260000       0.26510000
H       -0.50130000       1.70550000      -1.05090000
H       -1.06910000       1.67060000       0.62590000
H        1.42050000      -1.38860000      -0.85530000
H        3.23250000       0.59540000      -0.97780000
H        3.46620000       1.64910000       1.38740000
H        2.12510000      -0.17970000       2.87090000
H        1.09610000       1.19820000       2.51590000
H       -0.64270000      -3.51300000       2.82830000
