17
Properties=species:S:1:pos:R:3 gdb_38195=T pbc="F F F"
C       -0.03150000       1.59850000       0.00830000
C        1.48400000       1.25630000       0.00780000
C        1.71860000       0.62490000       1.43970000
C        0.54990000      -0.35240000       1.31930000
C        0.37230000      -1.83870000       0.93520000
C       -0.91490000      -1.06850000       0.54150000
O       -0.85020000      -0.35450000       1.85760000
C       -0.02890000       0.07320000      -0.01830000
O        1.16920000       0.09650000      -0.85920000
H       -0.47100000       2.10250000       0.86920000
H       -0.33810000       2.04510000      -0.93790000
H        2.24500000       1.90900000      -0.41850000
H        2.68360000       0.12270000       1.53090000
H        1.61950000       1.36110000       2.24050000
H        1.00760000      -2.22010000       0.13520000
H        0.24290000      -2.53240000       1.76620000
H       -1.89610000      -1.44000000       0.24450000
