21
Properties=species:S:1:pos:R:3 gdb_118299=T pbc="F F F"
C       -0.17230000       1.28330000       0.04180000
O       -0.01660000      -0.11560000       0.01270000
C        0.66620000      -0.57020000      -1.13250000
C        0.75550000      -2.09660000      -1.07390000
C       -0.63210000      -2.74620000      -1.08490000
C        1.63640000      -2.59500000      -2.22000000
O        1.87620000      -4.00120000      -2.08500000
C        1.55260000      -4.81220000      -3.10890000
O        1.73430000      -5.99170000      -3.08270000
H        0.79930000       1.80220000       0.04440000
H       -0.75310000       1.64800000      -0.82020000
H       -0.70840000       1.53300000       0.96040000
H        0.13400000      -0.25270000      -2.04820000
H        1.67640000      -0.12590000      -1.17610000
H        1.26040000      -2.35460000      -0.13470000
H       -0.56050000      -3.83080000      -0.97170000
H       -1.23730000      -2.35100000      -0.26700000
H       -1.15660000      -2.53410000      -2.02520000
H        1.16450000      -2.39070000      -3.19170000
H        2.61360000      -2.09970000      -2.20650000
H        1.10590000      -4.26590000      -3.96340000
