20
Properties=species:S:1:pos:R:3 gdb_57728=T pbc="F F F"
C        0.10560000       1.64390000       0.30530000
C        0.04060000       0.11600000       0.09370000
C        0.76190000      -0.60750000       1.25100000
C       -1.40790000      -0.36130000      -0.03740000
O       -2.08650000      -0.04700000       1.18150000
C       -3.38600000      -0.39360000       1.24900000
N       -4.04940000      -0.14830000       2.29410000
C        0.78120000      -0.20860000      -1.19330000
O        0.30140000      -0.75230000      -2.15540000
H        1.14370000       1.98680000       0.36080000
H       -0.38740000       2.18050000      -0.51180000
H       -0.39490000       1.90860000       1.23930000
H        0.26980000      -0.37190000       2.19720000
H        0.74220000      -1.69380000       1.11560000
H        1.80780000      -0.29140000       1.31790000
H       -1.89620000       0.13620000      -0.88370000
H       -1.43620000      -1.44200000      -0.22040000
H       -3.75840000      -0.88150000       0.33760000
H       -5.00770000      -0.47190000       2.18050000
H        1.85090000       0.10630000      -1.18540000
