17
Properties=species:S:1:pos:R:3 gdb_35905=T pbc="F F F"
C       -0.05230000      -1.20510000      -0.02800000
C       -0.04020000      -0.00590000       0.03280000
C        0.00350000       1.45280000       0.06130000
O       -0.70510000       1.91160000       1.21740000
C       -0.58040000       3.30380000       1.35280000
O        0.70660000       3.68700000       1.76090000
C        1.71700000       3.19960000       0.91780000
C        2.32020000       1.86150000       1.25390000
C        1.42750000       2.00040000       0.04500000
H       -0.06830000      -2.26620000      -0.07250000
H       -0.51560000       1.83750000      -0.83390000
H       -0.84630000       3.79530000       0.39910000
H       -1.26440000       3.61320000       2.14470000
H        2.35570000       3.99090000       0.53480000
H        3.38080000       1.70490000       1.09340000
H        1.90170000       1.36550000       2.12240000
H        1.89680000       1.97000000      -0.93280000
