20
Properties=species:S:1:pos:R:3 gdb_89538=T pbc="F F F"
O        0.10030000       1.47920000      -0.07360000
C        0.06700000       0.07580000      -0.06150000
C        0.40550000      -0.69220000       1.24580000
C       -0.73620000      -1.67260000       0.90520000
C       -1.29820000      -0.66340000      -0.11770000
C       -0.56460000      -3.18940000       0.65880000
C       -0.46910000      -3.27600000       2.19620000
N       -1.62760000      -2.27620000       2.00630000
C       -2.08710000      -3.24870000       0.90140000
H       -0.46450000       1.79680000       0.63920000
H        0.71830000      -0.23800000      -0.88200000
H        1.42030000      -1.07990000       1.36170000
H        0.15000000      -0.09640000       2.13010000
H       -2.09270000      -0.05860000       0.33530000
H       -1.64150000      -1.02820000      -1.08860000
H        0.03700000      -3.69790000      -0.10360000
H       -0.78020000      -4.20810000       2.67560000
H        0.40480000      -2.84890000       2.69230000
H       -2.75350000      -2.79560000       0.16470000
H       -2.50580000      -4.17900000       1.29460000
