23
Properties=species:S:1:pos:R:3 gdb_119879=T pbc="F F F"
C       -0.00220000       1.40520000      -0.00280000
O       -0.00080000      -0.00000000       0.04190000
C        0.56000000      -0.58310000      -1.11100000
C        0.50840000      -2.07450000      -1.02310000
C       -0.02490000      -2.79580000      -0.03710000
C        0.17560000      -4.27760000      -0.23970000
C        0.63470000      -4.36380000      -1.71500000
C        1.16920000      -2.95260000      -2.07600000
C        0.89870000      -2.55260000      -3.53200000
H        1.01810000       1.81430000      -0.08180000
H       -0.58930000       1.78850000      -0.85300000
H       -0.45340000       1.76190000       0.92620000
H        0.02540000      -0.23330000      -2.01390000
H        1.60940000      -0.25250000      -1.24040000
H       -0.50190000      -2.37130000       0.83740000
H        0.94160000      -4.66190000       0.44980000
H       -0.72870000      -4.86620000      -0.04610000
H        1.37300000      -5.15070000      -1.89280000
H       -0.23060000      -4.58360000      -2.35120000
H        2.25990000      -2.91730000      -1.92050000
H       -0.17760000      -2.53010000      -3.73760000
H        1.30850000      -1.56470000      -3.76820000
H        1.35610000      -3.27000000      -4.22170000
