16
Properties=species:S:1:pos:R:3 gdb_9318=T pbc="F F F"
C        0.07860000       1.34330000       0.00800000
O        0.00970000      -0.06290000       0.00160000
C       -1.31640000      -0.54300000       0.01130000
C       -1.25300000      -2.06350000       0.00300000
C       -2.62160000      -2.71200000       0.01230000
O       -3.65700000      -2.08040000       0.02570000
C       -2.62040000      -4.16710000       0.00430000
C       -2.60000000      -5.37050000      -0.00240000
H        1.13590000       1.61870000      -0.00020000
H       -0.41040000       1.78060000      -0.87680000
H       -0.39410000       1.77160000       0.90600000
H       -1.85910000      -0.18860000       0.90160000
H       -1.87520000      -0.17960000      -0.86540000
H       -0.70130000      -2.41960000      -0.87640000
H       -0.68540000      -2.42830000       0.86860000
H       -2.60070000      -6.43370000      -0.00740000
