18
Properties=species:S:1:pos:R:3 gdb_22634=T pbc="F F F"
C       -0.04970000       1.46150000      -0.07240000
C        0.00620000      -0.03230000       0.06450000
C       -0.78120000      -0.79180000       1.08890000
C        0.75420000      -0.78860000       1.14290000
C        1.41350000      -1.89670000       0.42730000
C        0.89710000      -1.90620000      -0.99740000
O        0.19840000      -0.67750000      -1.17820000
N        2.30540000      -2.64460000       0.94240000
O        2.78510000      -3.56610000      -0.01250000
H        0.87250000       1.84290000      -0.52090000
H       -0.88720000       1.75320000      -0.71460000
H       -0.18790000       1.93430000       0.90360000
H       -1.28000000      -0.22480000       1.86730000
H       -1.28860000      -1.70470000       0.79640000
H        1.25850000      -0.31370000       1.97440000
H        1.71620000      -1.97320000      -1.72080000
H        0.23480000      -2.76670000      -1.16910000
H        3.46530000      -4.03530000       0.48150000
