14
Properties=species:S:1:pos:R:3 gdb_25075=T pbc="F F F"
O       -0.17330000      -0.07900000       0.12360000
C       -0.03990000       1.11000000       0.14330000
O       -1.10730000       2.02390000       0.09930000
C       -0.63400000       3.31960000       0.28340000
C        0.70170000       3.26700000       0.30460000
C        2.08840000       3.64720000       0.75170000
C        2.42890000       2.78790000       1.96480000
C        2.43750000       2.15280000       0.60580000
N        1.06810000       1.92880000       0.12510000
H       -1.37300000       4.09700000       0.36100000
H        2.66320000       4.51270000       0.45830000
H        3.41160000       2.97320000       2.38920000
H        1.65860000       2.53070000       2.68450000
H        3.28100000       1.66660000       0.13710000
