25
Properties=species:S:1:pos:R:3 gdb_60063=T pbc="F F F"
C        0.17330000       1.60470000      -0.15990000
C        0.12490000       0.07580000      -0.14420000
O        0.89010000      -0.45060000       0.94090000
C       -1.31630000      -0.45470000      -0.14810000
C       -1.48020000      -1.97500000      -0.03030000
C       -0.66900000      -2.72750000      -1.08960000
C       -1.29760000      -2.60650000       1.38980000
C       -2.60520000      -3.41480000       1.18300000
C       -2.96530000      -2.46640000       0.00890000
H        1.21020000       1.95140000      -0.15160000
H       -0.32290000       2.00970000      -1.04810000
H       -0.33310000       2.01830000       0.72150000
H        0.64380000      -0.29620000      -1.03510000
H        0.47120000      -0.16500000       1.76030000
H       -1.87040000       0.02480000       0.67330000
H       -1.80070000      -0.11430000      -1.07470000
H        0.40580000      -2.59590000      -0.93350000
H       -0.87690000      -3.80200000      -1.05370000
H       -0.91670000      -2.37810000      -2.09930000
H       -0.37390000      -3.16180000       1.56720000
H       -1.40630000      -1.86080000       2.18370000
H       -2.41640000      -4.43910000       0.85100000
H       -3.30530000      -3.45530000       2.02070000
H       -3.64750000      -1.66930000       0.32180000
H       -3.35980000      -2.91640000      -0.90700000
