20
Properties=species:S:1:pos:R:3 gdb_102829=T pbc="F F F"
O       -0.08520000       1.46470000       0.08810000
C       -0.08230000       0.05540000       0.20280000
C       -1.50600000      -0.51260000       0.15040000
C       -2.36820000       0.04170000       1.29230000
C       -3.51660000      -0.83050000       1.73730000
O       -3.78390000      -1.92450000       1.30480000
N       -2.06860000      -0.09790000      -1.14200000
C       -1.82950000      -0.98840000      -2.27740000
C       -3.18920000      -0.86560000      -1.68800000
H       -0.67620000       1.65500000      -0.65310000
H        0.51850000      -0.41240000      -0.59430000
H        0.39040000      -0.19180000       1.15960000
H       -1.46190000      -1.61030000       0.24150000
H       -1.75820000       0.22250000       2.18930000
H       -2.76780000       1.02900000       1.02880000
H       -4.12780000      -0.38490000       2.55510000
H       -1.58770000      -0.50170000      -3.21770000
H       -1.28790000      -1.91390000      -2.09100000
H       -3.55810000      -1.69910000      -1.09870000
H       -3.95080000      -0.27910000      -2.19430000
