15
Properties=species:S:1:pos:R:3 gdb_74174=T pbc="F F F"
N       -0.05520000       1.41960000       0.13220000
C       -0.02460000       0.04390000       0.05920000
C       -1.16800000      -0.80300000       0.07290000
C       -0.67320000      -2.08620000       0.05780000
N       -1.28890000      -3.30670000       0.12510000
H       -2.24270000      -3.33450000      -0.19900000
H       -0.72540000      -4.07970000      -0.19800000
O        0.65960000      -2.10780000       0.03060000
C        1.09550000      -0.77880000       0.02940000
C        2.49060000      -0.49950000      -0.01600000
O        3.40410000      -1.30650000      -0.05330000
H        0.78310000       1.89960000      -0.15700000
H       -0.89180000       1.85320000      -0.22720000
H       -2.20450000      -0.50780000       0.11000000
H        2.69760000       0.59940000      -0.01710000
