17
Properties=species:S:1:pos:R:3 gdb_133062=T pbc="F F F"
C       -0.27770000       1.52490000       0.05860000
C        0.08690000       0.03480000      -0.04050000
C        0.73870000      -0.48150000       1.21860000
C        0.11760000      -1.41080000       2.05120000
C        0.77470000      -1.83110000       3.20690000
C        2.02840000      -1.31730000       3.50220000
C        2.54700000      -0.39530000       2.59630000
F        3.75020000       0.12090000       2.84260000
N        1.95510000       0.01890000       1.50350000
H        0.61210000       2.11710000       0.28720000
H       -0.70090000       1.88380000      -0.88410000
H       -1.01410000       1.69860000       0.85000000
H       -0.80610000      -0.55930000      -0.26010000
H        0.78570000      -0.10810000      -0.87270000
H       -0.86210000      -1.79840000       1.79730000
H        0.31210000      -2.55460000       3.87010000
H        2.59150000      -1.60290000       4.38120000
