16
Properties=species:S:1:pos:R:3 gdb_124005=T pbc="F F F"
C        0.10990000       1.42390000       0.35320000
N        1.08680000       2.10900000      -0.50460000
C        2.20340000       1.40410000      -0.91120000
C        3.46520000       1.74650000      -1.35390000
C        4.04160000       0.50670000      -1.73520000
N        3.23090000      -0.52330000      -1.55270000
N        2.09970000       0.04890000      -1.03870000
C        0.93980000      -0.64550000      -0.71740000
C       -0.04840000      -0.01360000      -0.08250000
H        0.39750000       1.46080000       1.42140000
H       -0.84410000       1.95560000       0.26850000
H        1.27510000       3.06530000      -0.24570000
H        3.90110000       2.73050000      -1.40340000
H        5.03160000       0.33800000      -2.13440000
H        0.92880000      -1.68030000      -1.03170000
H       -0.96130000      -0.53600000       0.17080000
