16
Properties=species:S:1:pos:R:3 gdb_29821=T pbc="F F F"
C       -0.02570000       1.45360000      -0.00530000
N       -0.03340000      -0.00450000       0.01570000
C       -1.19360000      -0.70900000      -0.09400000
C       -1.18480000      -2.07460000      -0.08340000
N       -2.32560000      -2.87730000      -0.28270000
C        0.10390000      -2.66590000       0.06040000
N        1.22490000      -2.01680000       0.18620000
C        1.22860000      -0.63210000       0.16800000
O        2.22540000       0.05750000       0.27280000
H        0.60130000       1.80940000      -0.82620000
H       -1.04680000       1.81830000      -0.12840000
H        0.40140000       1.83720000       0.92430000
H       -2.10250000      -0.12580000      -0.19690000
H       -3.19420000      -2.38660000      -0.11270000
H       -2.30980000      -3.72170000       0.27580000
H        0.16890000      -3.75680000       0.07030000
