15
Properties=species:S:1:pos:R:3 gdb_85652=T pbc="F F F"
C        0.65000000       1.22700000      -0.38870000
C       -0.02250000      -0.05710000       0.05570000
O        0.02670000      -1.08200000      -0.93000000
C        1.08210000      -1.95930000      -0.59840000
C        2.30140000      -1.69420000      -1.38730000
N        3.24220000      -1.47450000      -2.02030000
C        1.30730000      -1.71830000       0.89480000
N        1.98940000      -2.45390000       1.64900000
O        0.62130000      -0.59400000       1.21970000
H        1.70010000       1.04990000      -0.63550000
H        0.14020000       1.61650000      -1.27360000
H        0.59200000       1.97200000       0.40940000
H       -1.07660000       0.09950000       0.30520000
H        0.76440000      -2.98990000      -0.77820000
H        2.00470000      -2.10270000       2.60680000
