18
Properties=species:S:1:pos:R:3 gdb_103317=T pbc="F F F"
C        0.03300000       1.56490000      -0.13530000
C       -0.01060000       0.05530000       0.13610000
C       -1.41700000      -0.52690000       0.08500000
O       -2.27090000      -0.00640000       1.07150000
C       -2.07020000      -0.76750000      -1.32970000
N       -1.08250000      -1.92200000      -1.47210000
C       -1.57190000      -2.07020000      -0.03310000
C       -2.98220000      -1.80020000      -0.62140000
O       -4.06670000      -2.28350000      -0.69370000
H        1.06380000       1.92930000      -0.11000000
H       -0.38050000       1.80790000      -1.11990000
H       -0.52070000       2.14090000       0.61610000
H        0.60960000      -0.47060000      -0.59230000
H        0.40000000      -0.15120000       1.13160000
H       -2.25200000       0.95470000       1.02220000
H       -2.26100000      -0.06790000      -2.14220000
H       -1.47630000      -2.66000000      -2.06000000
H       -1.19620000      -2.84520000       0.63270000
