18
Properties=species:S:1:pos:R:3 gdb_32901=T pbc="F F F"
C       -0.12370000       1.39960000       0.69050000
C       -0.08190000       0.03930000       0.09990000
C       -0.95860000      -0.74680000      -0.56800000
N       -0.35280000      -1.95840000      -0.88780000
C        0.84580000      -1.85810000      -0.40840000
C        1.95300000      -2.85250000      -0.44950000
C        1.55150000      -4.13600000      -1.16740000
O        2.68440000      -4.99140000      -1.13710000
O        1.09030000      -0.67060000       0.20900000
H        0.62470000       2.05900000       0.23680000
H       -1.11000000       1.84050000       0.52940000
H        0.06930000       1.37660000       1.76900000
H       -1.97930000      -0.53170000      -0.84250000
H        2.82730000      -2.41640000      -0.94810000
H        2.27580000      -3.09340000       0.57080000
H        0.68520000      -4.58630000      -0.66290000
H        1.24200000      -3.90310000      -2.19580000
H        2.45160000      -5.80880000      -1.58630000
