23
Properties=species:S:1:pos:R:3 gdb_122386=T pbc="F F F"
O       -0.10740000       1.35980000      -0.34850000
C       -0.00750000       0.00440000       0.06430000
C       -1.37420000      -0.64400000      -0.10600000
C       -1.39550000      -2.11780000       0.31850000
C       -2.77100000      -2.73860000       0.17220000
C       -3.35450000      -3.28580000      -1.10540000
C       -2.30450000      -4.03160000      -1.94150000
C       -2.02410000      -4.97340000      -0.72600000
C       -3.07580000      -4.21050000       0.09130000
H        0.75550000       1.77040000      -0.24220000
H        0.74020000      -0.54030000      -0.53620000
H        0.31000000      -0.06810000       1.11800000
H       -2.10430000      -0.07200000       0.48030000
H       -1.67870000      -0.55190000      -1.15520000
H       -0.65670000      -2.67530000      -0.26800000
H       -1.07520000      -2.20300000       1.36630000
H       -3.52740000      -2.21200000       0.75400000
H       -4.30750000      -2.93620000      -1.48550000
H       -2.74510000      -4.57130000      -2.78240000
H       -1.46630000      -3.43690000      -2.31980000
H       -2.32280000      -6.00350000      -0.93260000
H       -1.00530000      -4.98800000      -0.32470000
H       -3.78290000      -4.67470000       0.76940000
