16
Properties=species:S:1:pos:R:3 gdb_3450=T pbc="F F F"
O        0.03600000       1.37080000      -0.13500000
C        0.03010000      -0.04400000      -0.09530000
C        0.75380000      -0.63650000       1.14810000
C        0.02220000      -1.95160000       1.49650000
C       -1.38200000      -1.74590000       0.95330000
N       -1.96130000      -0.42860000       1.31230000
C       -1.36630000      -0.64290000      -0.03120000
H       -0.51380000       1.65550000       0.60590000
H        0.52120000      -0.36430000      -1.02120000
H        1.82240000      -0.77730000       0.97120000
H        0.65080000       0.07940000       1.96760000
H        0.47600000      -2.80680000       0.98160000
H        0.03690000      -2.16940000       2.56930000
H       -2.05480000      -2.59140000       0.84930000
H       -2.97390000      -0.48250000       1.23750000
H       -2.01000000      -0.61940000      -0.90420000
