12
Properties=species:S:1:pos:R:3 gdb_131314=T pbc="F F F"
O       -0.05830000       1.27720000       0.01050000
C        0.04130000      -0.04850000       0.00240000
N        1.15580000      -0.72980000      -0.00830000
N        0.68520000      -2.03720000      -0.01270000
C        1.10400000      -3.34070000      -0.02280000
N        0.04650000      -4.12330000      -0.02000000
N       -1.11250000      -3.34920000      -0.00890000
C       -0.67050000      -2.12030000      -0.00480000
N       -1.10280000      -0.80470000       0.00490000
H        0.83830000       1.63950000       0.00700000
H        2.13450000      -3.65110000      -0.03100000
H       -2.04800000      -0.46460000       0.01400000
