18
Properties=species:S:1:pos:R:3 gdb_16867=T pbc="F F F"
O        0.03140000      -0.10540000      -0.00320000
C       -0.00240000       1.10160000       0.05890000
C       -1.29490000       1.89810000       0.08560000
C       -1.40910000       2.72110000       1.38830000
C       -0.13440000       3.49750000       1.72090000
C        0.95080000       2.84600000       2.54660000
C        1.18900000       3.11350000       1.08410000
C        1.25940000       1.95660000       0.09680000
H       -1.28350000       2.58790000      -0.76890000
H       -2.13850000       1.21440000      -0.03130000
H       -2.24960000       3.41500000       1.29180000
H       -1.66430000       2.04640000       2.21330000
H       -0.28040000       4.55930000       1.89130000
H        1.48280000       3.44380000       3.27840000
H        0.79110000       1.81430000       2.84930000
H        1.86610000       3.93160000       0.85690000
H        2.11860000       1.30560000       0.28360000
H        1.37610000       2.36260000      -0.91890000
