19
Properties=species:S:1:pos:R:3 gdb_119756=T pbc="F F F"
C       -0.01810000       1.57190000      -0.08530000
C        0.08010000       0.05430000       0.02260000
N        0.62530000      -0.51970000      -1.19750000
C        0.76590000      -1.86370000      -1.35120000
C        0.30270000      -2.88280000      -0.59340000
C        0.68260000      -4.16330000      -1.21450000
O        0.38450000      -5.29530000      -0.89430000
N        1.50650000      -3.83520000      -2.29880000
C        1.50870000      -2.41300000      -2.55480000
H        0.96990000       2.02340000      -0.23140000
H       -0.65670000       1.86530000      -0.92390000
H       -0.44030000       1.99140000       0.83130000
H        0.69080000      -0.22910000       0.89400000
H       -0.91580000      -0.37520000       0.18450000
H        1.25890000       0.06710000      -1.71840000
H       -0.26350000      -2.83080000       0.32290000
H        1.60640000      -4.50470000      -3.04430000
H        0.98610000      -2.14240000      -3.48430000
H        2.52650000      -2.00010000      -2.61820000
