17
Properties=species:S:1:pos:R:3 gdb_63102=T pbc="F F F"
C        0.05800000       1.60370000      -0.12540000
C        0.04110000       0.10060000       0.00480000
O       -1.17020000      -0.50650000      -0.36290000
C        1.25980000      -0.75220000      -0.17760000
O        2.51020000      -0.09790000      -0.18350000
C        2.87560000       0.28990000       1.13360000
C        1.67430000       0.00890000       2.04880000
O        1.63870000       0.21660000       3.23410000
C        0.63750000      -0.65440000       1.20000000
H        1.03240000       2.02820000       0.12110000
H       -0.16700000       1.88810000      -1.16050000
H       -0.69930000       2.05240000       0.52340000
H       -1.30750000      -0.34080000      -1.30320000
H        1.22130000      -1.65070000      -0.78490000
H        3.73790000      -0.29390000       1.48440000
H        3.15210000       1.35020000       1.15890000
H        0.01280000      -1.41880000       1.64320000
