16
Properties=species:S:1:pos:R:3 gdb_6679=T pbc="F F F"
N       -0.30420000       1.13640000      -0.44500000
C       -0.11210000      -0.18870000      -0.20300000
O        0.68110000      -0.87040000      -0.82440000
C       -0.94580000      -0.77850000       0.95130000
N       -0.96640000      -2.22770000       0.96570000
C       -1.79870000      -2.82130000      -0.07550000
C       -1.98640000      -4.30890000       0.17360000
O       -2.26990000      -5.10910000      -0.67840000
H        0.26220000       1.58920000      -1.14380000
H       -0.95180000       1.69200000       0.08580000
H       -0.50660000      -0.41240000       1.88970000
H       -1.97290000      -0.39570000       0.91660000
H       -0.00810000      -2.53700000       0.82110000
H       -2.80270000      -2.37420000      -0.01190000
H       -1.44190000      -2.67130000      -1.10450000
H       -1.85410000      -4.59990000       1.24070000
