16
Properties=species:S:1:pos:R:3 gdb_48697=T pbc="F F F"
O       -0.13760000       0.00950000       0.10840000
C       -0.00280000       1.18860000      -0.10950000
C        1.27190000       1.91280000       0.05980000
C        1.32810000       3.37230000       0.33860000
N        1.72950000       2.94190000      -0.99650000
C        3.14030000       2.37510000      -0.83230000
C        2.64540000       1.26900000       0.15340000
C        3.69880000       1.90640000      -2.08230000
C        4.17550000       1.49920000      -3.10720000
H       -0.84360000       1.82400000      -0.46760000
H        0.39060000       3.92070000       0.34260000
H        2.07580000       3.73930000       1.03990000
H        3.80560000       3.11940000      -0.38020000
H        3.11220000       1.23510000       1.14020000
H        2.66520000       0.27630000      -0.29450000
H        4.59340000       1.14510000      -4.01720000
