18
Properties=species:S:1:pos:R:3 gdb_106942=T pbc="F F F"
O       -0.07890000       1.37020000       0.39430000
C       -0.00440000       0.00850000      -0.01030000
C       -1.40190000      -0.53840000      -0.03730000
C       -2.01930000      -1.12160000       1.19950000
C       -1.70410000      -2.02190000       0.02000000
C       -2.85990000      -2.26890000      -0.91680000
O       -3.34510000      -3.33410000      -1.22920000
N       -3.27420000      -1.03250000      -1.35410000
C       -2.38560000       0.07330000      -1.03850000
H        0.79610000       1.75950000       0.30500000
H        0.44820000      -0.07930000      -1.01140000
H        0.61070000      -0.58610000       0.68350000
H       -1.37840000      -1.22020000       2.06910000
H       -3.06010000      -0.91130000       1.42360000
H       -0.95000000      -2.79300000       0.10760000
H       -4.03440000      -0.96020000      -2.01060000
H       -2.92750000       0.92490000      -0.61260000
H       -1.84940000       0.43030000      -1.92940000
