21
Properties=species:S:1:pos:R:3 gdb_82535=T pbc="F F F"
C       -0.01820000       1.60030000       0.08320000
C        0.06060000       0.09220000       0.16640000
N        1.21880000      -0.72640000      -0.27610000
C        2.46670000       0.01770000       0.11920000
C        2.06270000      -0.02310000       1.59380000
C        2.93540000      -0.30820000       2.74950000
N        2.20670000       0.97600000       2.65330000
C        0.77030000      -0.70420000       1.19550000
C        0.18080000      -1.89180000       1.89640000
H        0.80500000       2.10570000       0.58910000
H       -0.03920000       1.92780000      -0.96250000
H       -0.94500000       1.94080000       0.55590000
H       -0.85160000      -0.38990000      -0.18420000
H        3.34500000      -0.58770000      -0.11850000
H        2.57630000       1.00180000      -0.34920000
H        2.59670000      -0.96110000       3.54960000
H        4.01060000      -0.31730000       2.58470000
H        2.84160000       1.71260000       2.35240000
H       -0.28940000      -1.58870000       2.83940000
H       -0.58350000      -2.36750000       1.27570000
H        0.94760000      -2.63950000       2.12520000
