19
Properties=species:S:1:pos:R:3 gdb_101912=T pbc="F F F"
C        0.18730000       1.58130000       0.08860000
C        0.17820000       0.06850000       0.17310000
O        0.39480000      -0.52210000       1.20770000
C       -0.08270000      -0.68690000      -1.13040000
C        1.28180000      -1.02120000      -1.80240000
O        1.12000000      -1.42600000      -3.13900000
C       -0.86060000      -1.96200000      -0.86270000
C       -2.18030000      -2.22310000      -1.44850000
O       -1.01350000      -2.86620000      -1.97570000
H        0.80560000       1.92520000      -0.74740000
H       -0.83100000       1.93970000      -0.10500000
H        0.54870000       2.00690000       1.02530000
H       -0.62220000      -0.04350000      -1.83390000
H        1.91900000      -0.12990000      -1.81930000
H        1.79550000      -1.77950000      -1.19050000
H        0.46200000      -2.13480000      -3.13670000
H       -0.59620000      -2.45580000       0.06950000
H       -2.87840000      -2.88770000      -0.94360000
H       -2.63390000      -1.47750000      -2.09980000
