14
Properties=species:S:1:pos:R:3 gdb_27390=T pbc="F F F"
N        0.10330000       1.30250000       0.13780000
C       -0.04280000      -0.04680000       0.03750000
N       -1.16290000      -0.64430000       0.03280000
C       -1.16600000      -2.04830000       0.00270000
N       -2.28190000      -2.66320000       0.00780000
N        0.07550000      -2.72490000      -0.03280000
C        1.13900000      -2.02720000      -0.05270000
N        2.39160000      -2.54690000      -0.15790000
O        1.19700000      -0.65300000      -0.01310000
H        0.96170000       1.70190000      -0.20540000
H       -0.74090000       1.82910000      -0.02140000
H       -2.08910000      -3.66530000      -0.02070000
H        2.45700000      -3.53790000       0.01030000
H        3.15860000      -1.97670000       0.15940000
