21
Properties=species:S:1:pos:R:3 gdb_62035=T pbc="F F F"
C       -0.16070000       1.55720000       0.07820000
C        0.03140000       0.02720000       0.02570000
C        0.65270000      -0.45850000      -1.30630000
C       -0.23760000      -0.23040000      -2.53540000
C        0.38040000      -0.80090000      -3.78900000
C        0.22360000      -0.17100000      -5.10510000
O        1.44570000      -0.04610000      -4.37570000
C        0.84490000      -0.42340000       1.15470000
C        1.53160000      -0.78390000       2.07350000
H        0.79770000       2.06880000      -0.05380000
H       -0.84370000       1.89530000      -0.70590000
H       -0.57520000       1.85980000       1.04310000
H       -0.95960000      -0.44080000       0.12070000
H        1.61640000       0.04130000      -1.45660000
H        0.86950000      -1.52910000      -1.21380000
H       -1.21760000      -0.70250000      -2.37820000
H       -0.41590000       0.83850000      -2.69300000
H        0.57100000      -1.87640000      -3.76570000
H        0.27640000      -0.77680000      -6.00880000
H       -0.36230000       0.74330000      -5.19480000
H        2.12970000      -1.10740000       2.88890000
