17
Properties=species:S:1:pos:R:3 gdb_31799=T pbc="F F F"
C       -0.06030000       1.48890000      -0.03650000
C        0.00800000      -0.01180000       0.01890000
N        0.40410000      -0.64490000      -1.09500000
C        0.46030000      -1.97380000      -1.04450000
C        0.12940000      -2.70290000       0.09840000
C        0.15740000      -4.20790000       0.13370000
O        1.15880000      -4.66960000      -0.75840000
C       -0.24800000      -1.93890000       1.19670000
N       -0.31850000      -0.60740000       1.17250000
H        0.94260000       1.90770000      -0.17290000
H       -0.65740000       1.81040000      -0.89490000
H       -0.49040000       1.88420000       0.88400000
H        0.79190000      -2.48910000      -1.94150000
H        0.34560000      -4.54540000       1.16550000
H       -0.83250000      -4.60010000      -0.15300000
H        1.06250000      -5.62180000      -0.85160000
H       -0.50380000      -2.41720000       2.14220000
