19
Properties=species:S:1:pos:R:3 gdb_36522=T pbc="F F F"
C       -0.06470000      -1.21910000      -0.02710000
C       -0.04760000      -0.01750000       0.00060000
C        0.00310000       1.43970000       0.03490000
C        1.43710000       2.00270000      -0.00560000
C        2.17230000       1.63650000      -1.30230000
O        3.44520000       2.26470000      -1.35050000
C        3.32720000       3.65570000      -1.23130000
O        2.75030000       4.05090000      -0.01420000
C        1.43650000       3.53210000       0.12270000
H       -0.09180000      -2.28030000      -0.05090000
H       -0.57260000       1.84410000      -0.80930000
H       -0.49910000       1.79890000       0.94290000
H        2.00860000       1.59100000       0.83350000
H        2.34360000       0.56060000      -1.37430000
H        1.56610000       1.94720000      -2.17260000
H        4.33720000       4.06890000      -1.25540000
H        2.72770000       4.05440000      -2.07380000
H        0.77560000       3.96990000      -0.64740000
H        1.07250000       3.85450000       1.10260000
