19
Properties=species:S:1:pos:R:3 gdb_88842=T pbc="F F F"
O       -0.09630000       1.48320000       0.31500000
C       -0.05050000       0.13890000      -0.06870000
C       -0.50710000      -0.91810000       0.90110000
C       -1.36510000      -0.55340000      -0.29800000
C       -2.65300000       0.18100000      -0.08490000
O       -3.16810000       0.78500000      -1.30260000
C       -4.42030000       0.08630000      -1.18790000
C       -3.94370000      -0.66350000       0.07490000
O       -3.70510000      -2.04540000      -0.06540000
H        0.59760000       1.62730000       0.96650000
H        0.76110000      -0.11170000      -0.75140000
H       -0.01760000      -1.88530000       0.91370000
H       -0.84600000      -0.56660000       1.87080000
H       -1.39570000      -1.27440000      -1.10670000
H       -2.52840000       0.94080000       0.69430000
H       -5.26670000       0.77130000      -1.04640000
H       -4.61590000      -0.56530000      -2.04930000
H       -4.51740000      -0.44860000       0.98530000
H       -4.55260000      -2.50100000      -0.04780000
