20
Properties=species:S:1:pos:R:3 gdb_66944=T pbc="F F F"
C        0.04070000       1.51140000       0.13940000
C        0.01150000       0.02300000      -0.03000000
C       -1.02470000      -0.89320000       0.67310000
C       -1.02130000      -2.19620000      -0.10630000
N        0.48180000      -2.04410000      -0.29130000
C        0.44800000      -1.06630000       0.91050000
C        0.53550000      -0.82680000      -1.15960000
C        0.33320000      -0.83120000      -2.63730000
C        1.70810000      -0.55620000      -2.03890000
H        1.03880000       1.91310000      -0.06810000
H       -0.66830000       2.00500000      -0.53530000
H       -0.22490000       1.79800000       1.16220000
H       -1.77020000      -0.48170000       1.34340000
H       -1.22120000      -3.06720000       0.52360000
H       -1.58380000      -2.27340000      -1.04300000
H        1.08860000      -1.10980000       1.78020000
H        0.18270000      -1.79200000      -3.11920000
H       -0.20350000      -0.00730000      -3.09650000
H        2.09640000       0.45600000      -2.09410000
H        2.45600000      -1.33680000      -2.12270000
