20
Properties=species:S:1:pos:R:3 gdb_74289=T pbc="F F F"
C       -0.00910000       1.53400000       0.06230000
C        0.04360000       0.04060000       0.01380000
C       -0.01340000      -0.73210000      -1.07160000
C        0.02980000      -2.22010000      -0.74680000
C        1.00010000      -3.01750000      -1.64110000
C        0.46170000      -2.20730000       0.75760000
C        0.12520000      -0.79310000       1.27610000
C       -1.32380000      -2.78970000      -0.89020000
N       -2.38570000      -3.23340000      -1.00550000
H        0.88560000       1.94430000       0.54710000
H       -0.08990000       1.97100000      -0.93610000
H       -0.86750000       1.87450000       0.65500000
H       -0.12390000      -0.38270000      -2.09210000
H        1.99960000      -2.57890000      -1.57320000
H        1.05270000      -4.06360000      -1.32560000
H        0.68120000      -2.99460000      -2.68690000
H       -0.00900000      -3.00750000       1.33190000
H        1.54370000      -2.36680000       0.79160000
H        0.87620000      -0.41840000       1.98090000
H       -0.83600000      -0.76770000       1.80760000
