18
Properties=species:S:1:pos:R:3 gdb_31090=T pbc="F F F"
C        0.27370000       1.12050000      -0.34030000
O       -0.08160000       0.09290000       0.57480000
C       -1.29560000      -0.50030000       0.31990000
C       -1.42040000      -1.83920000       0.04790000
O       -0.49450000      -2.82370000      -0.06440000
N       -2.74960000      -2.12650000      -0.08910000
C       -3.49840000      -0.97090000       0.08450000
C       -4.98600000      -0.98210000      -0.02130000
C       -2.61620000       0.05100000       0.34400000
H        1.26530000       1.47610000      -0.04930000
H        0.30580000       0.74460000      -1.37190000
H       -0.43260000       1.95950000      -0.29700000
H        0.35640000      -2.41540000       0.13690000
H       -3.11260000      -3.04550000      -0.27270000
H       -5.45340000      -1.65180000       0.71280000
H       -5.37490000       0.02280000       0.15900000
H       -5.33400000      -1.29660000      -1.01430000
H       -2.88520000       1.07880000       0.53380000
