21
Properties=species:S:1:pos:R:3 gdb_75394=T pbc="F F F"
C        0.14000000       1.49840000       0.04350000
C        0.02540000      -0.00790000      -0.04240000
C       -0.11550000      -0.62580000      -1.23160000
C       -0.11020000      -2.12720000      -1.36850000
C       -1.32580000      -2.67440000      -0.66570000
C       -1.47930000      -2.57380000       0.66500000
C       -0.59650000      -1.85420000       1.56980000
C       -0.54820000      -2.35980000       2.99330000
C        0.07010000      -0.71860000       1.22590000
H        1.06820000       1.79020000       0.55090000
H        0.14130000       1.95770000      -0.94820000
H       -0.68410000       1.93380000       0.62090000
H       -0.23170000      -0.02880000      -2.13280000
H       -0.09970000      -2.42190000      -2.42050000
H        0.79630000      -2.53680000      -0.90010000
H       -2.09460000      -3.16290000      -1.25880000
H       -2.33450000      -3.06360000       1.12830000
H       -0.14470000      -3.37860000       3.03960000
H        0.07010000      -1.72100000       3.62890000
H       -1.55410000      -2.40270000       3.42960000
H        0.60080000      -0.20470000       2.02740000
