23
Properties=species:S:1:pos:R:3 gdb_86046=T pbc="F F F"
C        0.18230000       1.60200000       0.17210000
C        0.07790000       0.08900000       0.05580000
C        1.03730000      -0.64970000      -0.91960000
C        1.23890000      -1.77010000       0.14800000
C        0.32860000      -2.97600000      -0.10660000
C        2.69390000      -2.22000000       0.36480000
C        2.86920000      -3.08930000       1.58940000
O        3.37960000      -4.18070000       1.59900000
C        0.64220000      -0.78700000       1.20940000
H        1.21300000       1.91030000       0.38280000
H       -0.12900000       2.09490000      -0.75580000
H       -0.45130000       1.98450000       0.98030000
H       -0.96040000      -0.18870000      -0.15370000
H        0.64040000      -0.95850000      -1.89090000
H        1.95600000      -0.07740000      -1.08690000
H        0.66290000      -3.53810000      -0.98590000
H        0.32550000      -3.66520000       0.74540000
H       -0.70540000      -2.66340000      -0.28300000
H        3.07510000      -2.76590000      -0.50480000
H        3.32260000      -1.32920000       0.50880000
H        2.48060000      -2.63730000       2.53240000
H        1.42500000      -0.25740000       1.76380000
H       -0.06960000      -1.20080000       1.92920000
