20
Properties=species:S:1:pos:R:3 gdb_37480=T pbc="F F F"
C        0.00750000       1.50880000       0.06520000
C        1.44080000       2.02940000      -0.02240000
O        2.02660000       1.73150000      -1.29010000
C        1.97640000       0.38790000      -1.68170000
C        3.02050000      -0.63080000      -1.21110000
N        2.77730000      -0.93310000       0.22170000
C        1.93770000      -1.57810000      -0.81400000
C        0.82870000      -0.56410000      -1.14430000
C       -0.01110000      -0.02880000       0.02750000
H       -0.45740000       1.86890000       0.99010000
H       -0.56660000       1.92700000      -0.77140000
H        1.46700000       3.12070000       0.05160000
H        2.04760000       1.60990000       0.79060000
H        1.96690000       0.39190000      -2.77670000
H        3.99000000      -0.82640000      -1.65410000
H        3.48760000      -1.60760000       0.50390000
H        1.90170000      -2.65620000      -0.90760000
H        0.19650000      -0.89150000      -1.97270000
H        0.41810000      -0.39860000       0.96370000
H       -1.03970000      -0.39990000      -0.03130000
