23
Properties=species:S:1:pos:R:3 gdb_110217=T pbc="F F F"
C       -0.27260000       1.45650000      -0.07890000
C        0.13600000      -0.01110000       0.09960000
C        0.78140000      -0.58370000      -1.14570000
C        1.02410000      -2.06250000      -1.43250000
C        2.36690000      -2.65120000      -1.75470000
C       -0.19720000      -2.85610000      -0.97800000
O       -1.09710000      -1.98550000      -1.71060000
C        0.02280000      -1.26290000      -2.25550000
C       -0.07060000      -0.84490000      -3.68710000
H        0.59200000       2.08510000      -0.32040000
H       -0.99870000       1.56430000      -0.89130000
H       -0.72850000       1.85460000       0.83300000
H        0.82780000      -0.10000000       0.94740000
H       -0.75100000      -0.60100000       0.34940000
H        1.60560000       0.01770000      -1.53200000
H        2.93210000      -2.88570000      -0.84420000
H        2.27120000      -3.57750000      -2.33310000
H        2.97310000      -1.95340000      -2.34170000
H       -0.22460000      -3.87160000      -1.39310000
H       -0.42810000      -2.89490000       0.09350000
H       -0.86870000      -0.10560000      -3.82140000
H        0.86760000      -0.38790000      -4.01540000
H       -0.29030000      -1.69970000      -4.33480000
