21
Properties=species:S:1:pos:R:3 gdb_106311=T pbc="F F F"
C       -0.18220000       1.47480000      -0.33620000
C        0.05220000      -0.01990000      -0.26950000
C        1.35950000      -0.77330000      -0.51820000
C        2.56360000      -0.10290000       0.13930000
C        3.21570000       1.15210000      -0.40560000
O        1.81220000       0.08480000       1.38170000
C        0.73890000      -0.71680000       0.86420000
C        0.17000000      -1.74100000       1.80940000
O       -0.94480000      -2.43040000       1.27230000
H       -0.05870000       1.86210000      -1.35320000
H       -1.20250000       1.71260000      -0.01530000
H        0.50450000       2.00580000       0.32580000
H       -0.76670000      -0.62200000      -0.66050000
H        1.41390000      -1.59850000      -1.21640000
H        3.33900000      -0.85840000       0.32970000
H        3.90210000       1.57080000       0.33800000
H        3.80030000       0.90110000      -1.29750000
H        2.48820000       1.91800000      -0.67660000
H        0.92380000      -2.50320000       2.03370000
H       -0.07100000      -1.23880000       2.76030000
H       -1.67120000      -1.80240000       1.20730000
