23
Properties=species:S:1:pos:R:3 gdb_115588=T pbc="F F F"
C        0.00290000       1.56950000       0.14070000
C       -0.11670000       0.05760000      -0.08150000
C        0.67210000      -0.45080000      -1.29400000
O        0.25570000       0.16990000      -2.49620000
C        2.21620000      -0.54840000      -1.05400000
C        2.04400000      -2.05950000      -0.73950000
C        0.65550000      -1.99030000      -1.43570000
O       -0.44360000      -2.63620000      -0.85570000
C       -0.44220000      -4.03140000      -1.05440000
H        1.04570000       1.88710000       0.25220000
H       -0.43760000       2.13850000      -0.68630000
H       -0.53090000       1.87030000       1.04680000
H        0.22640000      -0.47350000       0.81310000
H       -1.16630000      -0.21930000      -0.21970000
H        0.33950000       1.12310000      -2.39020000
H        2.75680000      -0.37820000      -1.98800000
H        2.64640000       0.07940000      -0.27030000
H        2.78470000      -2.74840000      -1.14930000
H        1.93400000      -2.24850000       0.33170000
H        0.74040000      -2.24720000      -2.50250000
H       -0.44860000      -4.28780000      -2.12550000
H        0.43150000      -4.51400000      -0.59080000
H       -1.34880000      -4.42790000      -0.59080000
