19
Properties=species:S:1:pos:R:3 gdb_114434=T pbc="F F F"
C        0.08630000       1.35630000       0.07620000
O       -0.20530000      -0.00290000      -0.15140000
C        0.56960000      -0.58900000      -1.16490000
C        2.07370000      -0.82780000      -0.81810000
C        2.37840000      -2.17680000      -1.46360000
C        1.52170000      -3.34080000      -1.00540000
O        0.36490000      -2.86110000      -0.31990000
C        0.07230000      -1.99920000      -1.46890000
C        1.19280000      -2.65790000      -2.29480000
H        1.11210000       1.50660000       0.44400000
H       -0.04350000       1.95820000      -0.83790000
H       -0.61280000       1.71460000       0.83570000
H        0.49500000       0.00960000      -2.09150000
H        2.72080000      -0.03990000      -1.21190000
H        2.19030000      -0.85760000       0.26960000
H        3.37870000      -2.41200000      -1.80980000
H        1.88270000      -4.33470000      -0.76820000
H       -0.96990000      -2.08180000      -1.77800000
H        1.19070000      -2.98080000      -3.32600000
