18
Properties=species:S:1:pos:R:3 gdb_41508=T pbc="F F F"
C        0.06210000       1.50180000      -0.16590000
O        1.48070000       1.49730000       0.18600000
C        1.42990000       0.16260000       0.51880000
N        2.35510000      -0.49600000       1.03750000
C        2.14280000      -1.89450000       1.36690000
C        0.77130000      -2.46430000       1.66270000
C       -0.46370000      -1.95590000       1.63560000
C       -0.90970000      -0.57510000       1.21520000
C       -0.01950000      -0.01470000       0.11180000
H       -0.50500000       2.14200000       0.51620000
H       -0.08630000       1.82260000      -1.19960000
H        2.60290000      -2.50930000       0.57570000
H        2.75860000      -2.10700000       2.25280000
H        0.85270000      -3.50120000       1.99120000
H       -1.26810000      -2.61570000       1.95410000
H       -1.95180000      -0.61650000       0.87690000
H       -0.89840000       0.10690000       2.07690000
H       -0.12340000      -0.61200000      -0.79830000
