13
Properties=species:S:1:pos:R:3 gdb_11938=T pbc="F F F"
O       -0.03560000       1.43780000       0.09950000
C       -0.02360000       0.07140000       0.03860000
C       -0.28670000      -0.75000000      -1.19000000
C       -1.16370000      -0.96330000       0.03010000
O       -0.49290000      -1.78860000       0.97870000
C        0.56550000      -0.80010000       1.14130000
C       -2.58240000      -0.85830000       0.04560000
N       -3.73500000      -0.75110000       0.04770000
H        0.28560000       1.79770000      -0.73350000
H       -0.77350000      -0.20520000      -1.99420000
H        0.37710000      -1.55420000      -1.49710000
H        1.56160000      -1.22540000       0.98120000
H        0.50130000      -0.32670000       2.12610000
