16
Properties=species:S:1:pos:R:3 gdb_33872=T pbc="F F F"
N       -0.01840000      -1.12780000       0.13930000
C        0.00310000       0.02650000       0.07980000
C        0.00900000       1.46470000      -0.03960000
C       -0.98510000       2.11560000      -1.01520000
N       -0.32420000       3.26770000      -1.66370000
C       -0.02530000       4.42870000      -0.82120000
C        1.02550000       3.40800000      -1.07430000
C        1.25980000       2.30560000      -0.06620000
N        0.45400000       2.21420000       1.14590000
H       -1.24930000       1.39260000      -1.79240000
H       -1.91340000       2.42050000      -0.51920000
H        0.00540000       5.37470000      -1.35530000
H       -0.47200000       4.50630000       0.16780000
H        1.84310000       3.61660000      -1.75800000
H        2.25150000       1.87230000       0.00410000
H       -0.12290000       3.03540000       1.30180000
