21
Properties=species:S:1:pos:R:3 gdb_116142=T pbc="F F F"
C        0.04050000       1.39930000       0.09810000
O       -0.01560000      -0.01420000       0.01350000
C        0.68250000      -0.54220000      -1.06800000
O        2.06420000      -0.27680000      -0.89430000
C        2.86780000      -1.01100000      -1.79960000
C        2.77330000      -2.51210000      -1.52000000
C        1.33300000      -2.93570000      -1.34050000
C        1.04480000      -4.40970000      -1.38080000
C        0.38810000      -2.01650000      -1.14300000
H        1.05760000       1.75270000       0.29840000
H       -0.31970000       1.86720000      -0.83110000
H       -0.61510000       1.69210000       0.92100000
H        0.35120000      -0.03370000      -2.00090000
H        2.55890000      -0.80550000      -2.83840000
H        3.88990000      -0.64250000      -1.67610000
H        3.23430000      -3.07390000      -2.34350000
H        3.34570000      -2.76620000      -0.61710000
H        1.62420000      -4.94200000      -0.61540000
H       -0.01470000      -4.62010000      -1.21340000
H        1.33470000      -4.84330000      -2.34670000
H       -0.65600000      -2.28880000      -1.02020000
