19
Properties=species:S:1:pos:R:3 gdb_93311=T pbc="F F F"
C       -0.36830000       1.49630000      -0.05060000
C        0.02160000       0.02330000       0.00610000
C        0.96300000      -0.44060000      -1.12830000
C        1.46660000      -1.81820000      -0.67410000
C        1.39680000      -1.79410000       0.85650000
O        1.73490000      -2.67100000       1.60100000
C        0.76450000      -0.43550000       1.29200000
C        1.83770000       0.46240000       1.69930000
C        2.74670000       1.18450000       2.01420000
H        0.51340000       2.13770000       0.03700000
H       -0.86500000       1.72440000      -0.99940000
H       -1.05650000       1.75960000       0.75900000
H       -0.89140000      -0.58620000      -0.04660000
H        0.45600000      -0.46630000      -2.09630000
H        1.79950000       0.26210000      -1.21340000
H        0.81090000      -2.62830000      -1.01630000
H        2.47740000      -2.07260000      -1.00340000
H        0.08910000      -0.61020000       2.13530000
H        3.54240000       1.82150000       2.31230000
