15
Properties=species:S:1:pos:R:3 gdb_19377=T pbc="F F F"
O        0.13420000       1.36030000       0.17760000
C        0.07290000      -0.03730000      -0.06370000
C       -1.32950000      -0.54560000      -0.12460000
N       -2.13640000      -0.87530000       1.08150000
C       -1.90850000      -1.89980000       0.03350000
C       -2.90270000      -1.60760000      -1.14970000
O       -3.67950000      -0.45620000      -0.83030000
C       -2.34650000      -0.26350000      -1.29720000
H       -0.41400000       1.54830000       0.94720000
H        0.57610000      -0.19040000      -1.02550000
H        0.63690000      -0.61020000       0.69230000
H       -1.46920000      -1.08630000       1.82670000
H       -1.42390000      -2.84370000       0.24650000
H       -3.29730000      -2.31500000      -1.86820000
H       -2.18400000       0.36990000      -2.16050000
