21
Properties=species:S:1:pos:R:3 gdb_53234=T pbc="F F F"
C        0.52040000       1.61010000      -0.68630000
C        0.33010000       0.19960000      -0.37790000
C        0.18290000      -0.96980000      -0.12490000
C       -0.01260000      -2.36920000       0.19420000
C       -0.07050000      -2.79950000       1.69630000
C       -1.16920000      -3.82000000       1.31160000
O       -2.22440000      -4.08500000       2.19900000
C       -1.43300000      -3.02190000      -0.00640000
C       -2.60500000      -2.05090000       0.07230000
H        1.56960000       1.90490000      -0.57140000
H        0.22600000       1.83690000      -1.71720000
H       -0.07570000       2.24900000      -0.02510000
H        0.73560000      -2.97480000      -0.32880000
H        0.84770000      -3.17070000       2.15620000
H       -0.47360000      -1.99280000       2.31580000
H       -0.73120000      -4.79670000       1.08490000
H       -2.61770000      -3.24500000       2.45750000
H       -1.52500000      -3.63460000      -0.90770000
H       -2.53230000      -1.38040000       0.93630000
H       -2.63970000      -1.41470000      -0.81630000
H       -3.55060000      -2.59790000       0.14210000
