16
Properties=species:S:1:pos:R:3 gdb_48072=T pbc="F F F"
O       -0.90750000       1.49660000      -0.13590000
C        0.19600000       1.05510000      -0.32340000
C        1.46640000       1.91640000      -0.31500000
O        2.52970000       1.37320000      -0.51550000
C        1.30820000       3.38270000      -0.05780000
C        0.71190000       4.10900000       1.17960000
N        1.11700000       5.28660000       0.27510000
C        2.39820000       4.46810000       0.00650000
C        0.49900000       4.44330000      -0.85450000
H        0.40360000      -0.01810000      -0.52070000
H       -0.36300000       4.02730000       1.34770000
H        1.27930000       4.05830000       2.11240000
H        3.09010000       4.44980000       0.85130000
H        2.90450000       4.74120000      -0.92200000
H        0.86450000       4.70940000      -1.84960000
H       -0.58980000       4.38340000      -0.81930000
