17
Properties=species:S:1:pos:R:3 gdb_37520=T pbc="F F F"
C       -0.07130000       1.59470000       0.10660000
C        1.40290000       1.97780000      -0.03710000
C        2.11380000       0.87550000       0.26650000
C        2.44490000      -0.20030000      -0.75620000
C        2.04230000      -1.34770000       0.18900000
O        1.13000000      -1.92740000      -0.75810000
C        0.91310000      -0.56620000      -1.20190000
C        0.07660000       0.03840000       0.00350000
C        1.25570000      -0.21740000       0.96360000
H       -0.57370000       1.86710000       1.04510000
H       -0.65060000       2.05020000      -0.70480000
H        1.72250000       2.73420000      -0.74780000
H        3.22090000      -0.23740000      -1.51820000
H        2.69460000      -2.05170000       0.70180000
H        0.54560000      -0.48610000      -2.22560000
H       -0.84720000      -0.53210000       0.13970000
H        1.09130000      -0.23320000       2.03920000
