19
Properties=species:S:1:pos:R:3 gdb_89087=T pbc="F F F"
C       -0.01160000       1.47770000      -0.22920000
C        0.02500000      -0.00140000       0.07860000
N        1.33710000      -0.66600000       0.06380000
C        0.58320000      -0.59750000       1.32440000
C        1.19140000       0.20750000       2.43920000
O        1.98720000      -0.67510000       3.22110000
C        2.63720000      -0.01560000       4.27520000
C        3.39750000      -0.99210000       5.06180000
N        4.00390000      -1.73670000       5.70240000
H        0.86380000       1.99260000       0.17220000
H       -0.02130000       1.63890000      -1.31230000
H       -0.91250000       1.94220000       0.18630000
H       -0.80950000      -0.55750000      -0.34830000
H        1.27690000      -1.59530000      -0.34220000
H        0.10670000      -1.50980000       1.67950000
H        1.81060000       1.01910000       2.03300000
H        0.40430000       0.65590000       3.06900000
H        3.33310000       0.75620000       3.90640000
H        1.92120000       0.48960000       4.94550000
