16
Properties=species:S:1:pos:R:3 gdb_22092=T pbc="F F F"
C        0.35450000       1.53860000      -0.48520000
C       -0.00600000       0.20570000       0.10430000
C        0.05620000       0.03680000       1.61060000
C        1.50430000      -0.02450000       2.06860000
O        2.27540000       0.90710000       2.05950000
C        2.03060000      -1.37970000       2.57100000
O        1.33770000      -2.34630000       2.74010000
N       -0.36620000      -0.83780000      -0.54070000
O       -0.41640000      -0.62460000      -1.92270000
H        1.19520000       1.97480000       0.06080000
H        0.60010000       1.44760000      -1.54270000
H       -0.49190000       2.23020000      -0.38790000
H       -0.41380000       0.89840000       2.09810000
H       -0.45470000      -0.88210000       1.89900000
H        3.11890000      -1.35490000       2.78870000
H       -0.67900000      -1.49160000      -2.24980000
