21
Properties=species:S:1:pos:R:3 gdb_118717=T pbc="F F F"
C        0.02410000       1.66340000      -0.25050000
C       -0.02080000       0.15480000      -0.10790000
C       -1.30720000      -0.43330000       0.45900000
C       -1.63080000       0.00810000       1.88500000
O       -2.78930000      -0.70600000       2.29200000
C        0.62100000      -0.76860000      -1.14190000
C        1.96000000      -0.21430000      -1.61200000
O        2.40810000      -0.01870000      -0.24240000
C        1.21250000      -0.63360000       0.24570000
H        1.02110000       2.00310000      -0.53650000
H       -0.69310000       2.00880000      -1.00390000
H       -0.22290000       2.15840000       0.69420000
H       -2.15400000      -0.17380000      -0.18860000
H       -1.24580000      -1.52830000       0.46180000
H       -0.77450000      -0.20760000       2.54430000
H       -1.80530000       1.09380000       1.92200000
H       -3.03100000      -0.40910000       3.17400000
H        0.08320000      -1.58770000      -1.60140000
H        2.58470000      -0.96380000      -2.11100000
H        1.96650000       0.71530000      -2.19310000
H        1.30580000      -1.32220000       1.07920000
