14
Properties=species:S:1:pos:R:3 gdb_5423=T pbc="F F F"
C        0.08870000       1.48730000       0.05550000
C       -0.05850000       0.00870000       0.04840000
C       -1.13310000      -0.84310000      -0.05230000
C       -2.53790000      -0.48100000      -0.19120000
O       -3.44510000      -1.28080000      -0.27580000
C       -0.59710000      -2.18010000       0.00660000
C        0.73850000      -2.03960000       0.13630000
O        1.08120000      -0.71060000       0.16320000
H        0.72530000       1.82130000      -0.77120000
H       -0.88410000       1.97180000      -0.04180000
H        0.55370000       1.82990000       0.98630000
H       -2.74260000       0.61240000      -0.21660000
H       -1.16610000      -3.09380000      -0.04440000
H        1.56240000      -2.72830000       0.22020000
