18
Properties=species:S:1:pos:R:3 gdb_32539=T pbc="F F F"
C       -0.10100000       1.57290000       0.02870000
C        0.09080000       0.04590000       0.03730000
C        0.77540000      -0.46620000      -1.20140000
C        2.05340000      -0.91860000      -1.18220000
N        2.68330000      -1.37950000      -2.31150000
C        2.03290000      -1.40540000      -3.51270000
C        0.75240000      -0.97890000      -3.61760000
C        0.01270000      -0.47190000      -2.46510000
O       -1.15320000      -0.08280000      -2.53080000
H        0.86260000       2.09150000      -0.01480000
H       -0.69540000       1.86870000      -0.83800000
H       -0.62210000       1.90040000       0.93390000
H        0.65720000      -0.25570000       0.92640000
H       -0.89590000      -0.42630000       0.09850000
H        2.65100000      -0.94490000      -0.27740000
H        3.63200000      -1.70710000      -2.25000000
H        2.60700000      -1.78490000      -4.34980000
H        0.24350000      -1.00570000      -4.57320000
