21
Properties=species:S:1:pos:R:3 gdb_40235=T pbc="F F F"
C        0.01090000       1.53260000       0.01350000
C        1.30180000       0.74750000      -0.00640000
C       -0.02890000       0.02590000       0.01430000
C       -0.41770000      -0.70520000       1.29190000
C       -0.15980000      -2.20200000       1.12480000
O       -0.99100000      -2.74720000       0.10740000
C       -0.85220000      -2.14440000      -1.14920000
C       -1.86860000      -1.09970000      -1.53150000
C       -0.43410000      -0.69650000      -1.24260000
H       -0.25780000       2.05100000       0.92860000
H       -0.28580000       2.05000000      -0.89300000
H        1.87810000       0.73840000      -0.92600000
H        1.90800000       0.73420000       0.89360000
H        0.15070000      -0.31210000       2.14220000
H       -1.48160000      -0.56110000       1.51960000
H        0.90330000      -2.37950000       0.89670000
H       -0.41060000      -2.75500000       2.03440000
H       -0.50180000      -2.83970000      -1.90920000
H       -2.21690000      -1.05100000      -2.55760000
H       -2.62280000      -0.87990000      -0.78390000
H        0.15510000      -0.43430000      -2.11710000
