15
Properties=species:S:1:pos:R:3 gdb_129209=T pbc="F F F"
N       -0.02550000       1.17930000      -0.64730000
C       -0.01630000       0.04250000      -0.07300000
N        1.19800000      -0.53000000       0.36650000
N        1.60660000      -1.55440000       1.12640000
C        0.81970000      -2.38900000       1.71880000
C       -0.61420000      -2.48690000       1.72700000
C       -1.52140000      -1.77060000       1.03270000
C       -1.33230000      -0.68920000       0.07140000
N       -2.27920000      -0.26580000      -0.68090000
H        0.90790000       1.59600000      -0.68490000
H        1.99630000       0.01190000       0.06590000
H        1.35730000      -3.13240000       2.30140000
H       -1.00090000      -3.27490000       2.36830000
H       -2.56700000      -2.03810000       1.16870000
H       -3.13060000      -0.80480000      -0.50030000
