15
Properties=species:S:1:pos:R:3 gdb_4002=T pbc="F F F"
C       -0.19010000       1.26600000      -0.43880000
C       -0.03360000      -0.15980000      -0.20750000
C        0.09680000      -1.34320000      -0.01650000
C        0.22500000      -2.73980000       0.20430000
C       -0.98030000      -3.64880000       0.06380000
O       -2.11230000      -2.88520000      -0.29070000
N        1.39010000      -3.18840000       0.52280000
O        1.34750000      -4.57740000       0.70470000
H        0.74870000       1.80210000      -0.26290000
H       -0.50250000       1.46660000      -1.46980000
H       -0.94980000       1.69260000       0.22580000
H       -0.73880000      -4.41640000      -0.68790000
H       -1.11470000      -4.18150000       1.01810000
H       -2.85710000      -3.48760000      -0.37210000
H        2.26050000      -4.77970000       0.93380000
