14
Properties=species:S:1:pos:R:3 gdb_127576=T pbc="F F F"
C        0.02070000       1.43140000      -0.03510000
N        0.02310000      -0.01630000       0.00760000
N        0.03730000      -0.74270000      -1.15140000
C        0.05650000      -2.00380000      -0.76820000
C        0.05800000      -2.13010000       0.64770000
C        0.07220000      -3.26190000       1.48510000
N        0.08340000      -4.15670000       2.22370000
C        0.03770000      -0.80830000       1.09260000
O        0.03170000      -0.27810000       2.32180000
H        0.98220000       1.80400000      -0.39900000
H       -0.77100000       1.76990000      -0.70610000
H       -0.15980000       1.81020000       0.97090000
H        0.06660000      -2.79880000      -1.49830000
H        0.02640000      -0.99330000       2.97080000
