15
Properties=species:S:1:pos:R:3 gdb_42714=T pbc="F F F"
O        0.04100000       0.03810000       0.30050000
C       -0.01550000       1.20590000       0.12470000
C       -1.10480000       2.33670000      -0.04810000
C       -0.67020000       3.06590000       1.24210000
C        0.68730000       3.15310000       1.22080000
C        0.97490000       2.49260000      -0.08990000
O        1.97910000       2.36990000      -1.07230000
C        0.88530000       2.34240000      -2.07210000
C       -0.09760000       2.99000000      -1.03890000
H       -2.16540000       2.16200000      -0.21450000
H       -1.32920000       3.24570000       2.07960000
H        1.35980000       3.44930000       2.01210000
H        1.13650000       2.95660000      -2.93780000
H        0.66900000       1.31420000      -2.37740000
H       -0.18750000       4.07190000      -1.14440000
