17
Properties=species:S:1:pos:R:3 gdb_91059=T pbc="F F F"
C        0.17140000       1.53540000       0.01110000
C        0.02860000       0.01900000       0.04900000
O        0.64680000      -0.53980000      -1.14190000
C        1.29100000      -1.72360000      -0.74680000
C        2.81050000      -2.07460000      -0.86550000
O        3.60130000      -1.17460000      -0.09280000
C        2.88690000      -2.20680000       0.61490000
C        1.49420000      -1.62040000       0.73720000
C        0.77320000      -0.62240000       1.22550000
H        1.22740000       1.81710000       0.04750000
H       -0.26230000       1.92600000      -0.91350000
H       -0.35010000       1.99310000       0.85790000
H       -1.04120000      -0.24820000       0.04300000
H        0.72910000      -2.62110000      -1.05800000
H        3.31250000      -2.63730000      -1.64400000
H        3.45700000      -2.88070000       1.24010000
H        0.77170000      -0.18900000       2.21760000
