19
Properties=species:S:1:pos:R:3 gdb_94885=T pbc="F F F"
O        0.14020000       1.41710000       0.07930000
C        0.03370000       0.00480000       0.00920000
C        0.70980000      -0.60100000       1.27470000
C        0.03730000      -1.98210000       1.52260000
C       -1.35340000      -1.81700000       0.93390000
C       -2.19580000      -0.60600000       1.28680000
C       -1.35280000      -0.59420000       0.05330000
O       -1.99330000      -1.26340000      -1.04850000
C       -1.95850000      -2.51200000      -0.29180000
H       -0.29180000       1.78640000      -0.69730000
H        0.52150000      -0.37900000      -0.90060000
H        1.79440000      -0.67010000       1.16230000
H        0.52280000       0.08590000       2.10650000
H        0.56730000      -2.76830000       0.97220000
H        0.05860000      -2.26370000       2.58050000
H       -3.27290000      -0.65980000       1.16810000
H       -1.85620000      -0.00310000       2.12130000
H       -1.27900000      -3.23310000      -0.76180000
H       -2.95560000      -2.95650000      -0.19200000
