22
Properties=species:S:1:pos:R:3 gdb_122720=T pbc="F F F"
C        1.04300000       1.04270000       0.49300000
C        0.29170000      -0.14570000      -0.09330000
O       -0.20080000      -1.01810000       0.92460000
C        0.64140000      -1.98650000       1.34760000
N        0.32830000      -2.70830000       2.32740000
C        1.20050000      -3.78120000       2.77090000
C        2.52980000      -4.01040000       2.03970000
C        3.31330000      -5.17050000       2.64000000
O        4.52130000      -5.30800000       1.90610000
H        1.94250000       0.71720000       1.02480000
H        1.34710000       1.72930000      -0.30380000
H        0.40730000       1.58630000       1.19730000
H       -0.59300000       0.18660000      -0.64330000
H        0.92720000      -0.70610000      -0.79290000
H        1.55940000      -2.06360000       0.74980000
H        1.40160000      -3.60790000       3.83770000
H        0.60890000      -4.70730000       2.74070000
H        2.35700000      -4.22640000       0.97850000
H        3.15730000      -3.11200000       2.08600000
H        3.51520000      -4.97210000       3.70540000
H        2.71060000      -6.09230000       2.59030000
H        5.01750000      -6.04220000       2.27960000
