21
Properties=species:S:1:pos:R:3 gdb_89984=T pbc="F F F"
C       -0.33980000       1.44620000       0.07180000
C       -0.13970000      -0.06630000       0.06450000
C        0.93880000      -0.57350000      -0.94320000
C        1.95250000      -0.67500000       0.21210000
C        3.15700000      -1.62250000       0.31850000
C        3.97950000      -0.34440000       0.56070000
O        2.81370000       0.49270000       0.36130000
C        0.77620000      -0.60380000       1.22180000
O        0.99850000       0.17030000       2.36360000
H        0.61760000       1.97680000       0.07120000
H       -0.89710000       1.76620000      -0.81490000
H       -0.89700000       1.76010000       0.95950000
H       -1.10780000      -0.57040000      -0.00590000
H        0.70820000      -1.55510000      -1.36810000
H        1.22370000       0.10770000      -1.74910000
H        3.11930000      -2.33340000       1.14640000
H        3.39690000      -2.15420000      -0.60460000
H        4.38970000      -0.23160000       1.57050000
H        4.76110000      -0.11990000      -0.17280000
H        0.46000000      -1.60290000       1.54240000
H        1.66090000       0.82510000       2.09740000
