16
Properties=species:S:1:pos:R:3 gdb_49694=T pbc="F F F"
O       -0.47500000       0.43320000      -0.58590000
C        0.08700000       1.14090000       0.21710000
C        1.32280000       1.94480000      -0.00270000
N        2.40710000       1.70730000      -0.97920000
C        1.81490000       1.12020000      -2.24240000
C        0.89420000       2.34240000      -2.45860000
C        1.48770000       2.90430000      -1.15900000
C        1.86950000       4.26020000      -0.94280000
C        2.15980000       5.41750000      -0.78820000
H       -0.31950000       1.26290000       1.24600000
H        1.73790000       2.32780000       0.92620000
H        2.61620000       1.04220000      -2.97870000
H        1.33460000       0.15420000      -2.10250000
H        1.16690000       2.94910000      -3.32250000
H       -0.18170000       2.16350000      -2.45740000
H        2.42510000       6.43620000      -0.64680000
