12
Properties=species:S:1:pos:R:3 gdb_3782=T pbc="F F F"
C       -0.04250000       1.47360000       0.06840000
N        0.10430000       0.02880000      -0.01960000
C        0.63690000      -0.70000000       0.98980000
C        0.68340000      -2.06980000       1.19770000
N        1.38390000      -2.25580000       2.34660000
N        1.77100000      -1.20270000       2.87690000
O        1.26670000      -0.07860000       1.96200000
H        0.91020000       1.92010000       0.35940000
H       -0.32070000       1.85630000      -0.91550000
H       -0.80340000       1.77980000       0.79800000
H       -0.53040000      -0.46390000      -0.62570000
H        0.28220000      -2.88170000       0.61740000
