18
Properties=species:S:1:pos:R:3 gdb_16519=T pbc="F F F"
C       -0.02030000       1.46900000       0.05380000
C        0.00230000      -0.03670000      -0.03260000
C        1.03480000      -0.73660000      -0.92540000
C        0.38560000      -2.10120000      -1.28960000
C       -0.71520000      -2.23680000      -0.24430000
O       -0.07650000      -2.20180000       1.07960000
C       -0.43970000      -0.82590000       1.18930000
C       -1.30120000      -0.82360000      -0.03470000
H        0.93650000       1.85830000       0.42010000
H       -0.20990000       1.92120000      -0.92680000
H       -0.80220000       1.81970000       0.73610000
H        1.24230000      -0.13490000      -1.81600000
H        1.98370000      -0.87530000      -0.39810000
H       -0.05380000      -2.08060000      -2.29400000
H        1.09070000      -2.93580000      -1.24400000
H       -1.38800000      -3.09100000      -0.33780000
H       -0.56770000      -0.40850000       2.18230000
H       -2.29730000      -0.45460000      -0.23830000
