14
Properties=species:S:1:pos:R:3 gdb_34565=T pbc="F F F"
N        0.08630000      -1.13690000       0.04350000
C       -0.00430000       0.01780000       0.00770000
C       -0.06290000       1.42660000      -0.05520000
C       -1.12160000       2.24940000      -0.00970000
C       -0.52330000       3.64540000       0.03360000
C        0.13640000       3.77690000       1.44590000
O        1.23450000       2.86230000       1.33560000
C        1.15040000       2.38240000      -0.01570000
O        0.67580000       3.48290000      -0.74630000
H       -2.16510000       1.99590000       0.11040000
H       -1.12160000       4.48370000      -0.31330000
H        0.51610000       4.79060000       1.60520000
H       -0.52570000       3.48810000       2.26730000
H        2.12020000       2.02690000      -0.35300000
