16
Properties=species:S:1:pos:R:3 gdb_49507=T pbc="F F F"
O       -0.64830000       0.82390000       0.55310000
C        0.23270000       0.98060000      -0.25550000
C        1.35920000       1.97230000      -0.15180000
C        1.10540000       3.41610000      -0.76530000
C        0.34450000       3.74700000       0.53990000
C        1.46340000       2.84190000       1.15520000
C        2.72330000       3.64120000       0.78160000
O        3.75710000       3.80410000       1.37410000
N        2.38210000       4.10140000      -0.50000000
H        0.26800000       0.36480000      -1.18370000
H        2.27850000       1.49660000      -0.51290000
H        0.70640000       3.58150000      -1.76440000
H        0.32170000       4.79800000       0.83170000
H       -0.63770000       3.28500000       0.61130000
H        1.41800000       2.41440000       2.15210000
H        3.10540000       4.15590000      -1.20330000
