18
Properties=species:S:1:pos:R:3 gdb_41867=T pbc="F F F"
C       -0.05890000       1.54090000       0.10000000
C        1.43080000       1.91390000      -0.12850000
C        2.20860000       0.61110000       0.12480000
O        3.26630000       0.43770000      -0.84620000
C        3.51660000      -0.83870000      -1.23120000
N        2.90880000      -1.91530000      -0.96410000
C        1.69740000      -1.86520000      -0.13860000
C        1.17240000      -0.47450000       0.00350000
C       -0.05800000       0.03420000      -0.02060000
H       -0.40660000       1.85740000       1.09280000
H       -0.72640000       2.02190000      -0.62360000
H        1.59490000       2.19630000      -1.17210000
H        1.76920000       2.74180000       0.49800000
H        2.69720000       0.59620000       1.10990000
H        4.39660000      -0.85450000      -1.87270000
H        0.95060000      -2.53160000      -0.58380000
H        1.94290000      -2.29910000       0.84270000
H       -0.97120000      -0.54670000      -0.09850000
