22
Properties=species:S:1:pos:R:3 gdb_111856=T pbc="F F F"
C       -0.01340000       1.56680000      -0.06710000
C       -0.35860000       0.08010000      -0.13350000
N        0.46500000      -0.57650000      -1.15070000
C        1.77530000      -1.14540000      -0.85950000
C        2.12280000      -1.51080000       0.57040000
O        1.02370000      -2.26830000       1.07110000
C        0.32680000      -2.86100000      -0.01970000
C        0.62710000      -2.02180000      -1.25560000
C        0.42790000      -2.64780000      -2.61430000
H        1.02330000       1.71610000       0.25330000
H       -0.13160000       2.03600000      -1.04800000
H       -0.66260000       2.08100000       0.64850000
H       -0.26850000      -0.37300000       0.86220000
H       -1.40220000      -0.03840000      -0.44950000
H        2.58460000      -0.87990000      -1.53570000
H        3.05620000      -2.09720000       0.58200000
H        2.25620000      -0.65140000       1.23770000
H        0.66320000      -3.89620000      -0.19340000
H       -0.73640000      -2.89250000       0.24700000
H       -0.62640000      -2.89730000      -2.78220000
H        0.73330000      -1.95020000      -3.39730000
H        1.00910000      -3.57090000      -2.71610000
