7
Properties=species:S:1:pos:R:3 gdb_755=T pbc="F F F"
N       -0.10060000       1.32500000       0.01030000
C       -0.00390000       0.08130000       0.00320000
O        1.11180000      -0.72570000      -0.00800000
N        0.66050000      -2.04580000      -0.01230000
N       -0.57280000      -2.06510000      -0.00400000
O       -1.07670000      -0.77210000       0.00560000
H        0.80890000       1.77840000       0.00700000
