18
Properties=species:S:1:pos:R:3 gdb_46700=T pbc="F F F"
O        0.03240000      -0.10070000      -0.06330000
C       -0.01780000       1.11650000      -0.05000000
N       -1.19810000       1.80000000      -0.14580000
C       -1.37630000       3.24330000      -0.05400000
C       -0.10790000       4.01190000      -0.41040000
C        1.09440000       4.14300000       0.49540000
C        1.26090000       2.89940000       1.36890000
C        1.20300000       2.00570000       0.07470000
C        1.15690000       3.29410000      -0.77280000
H       -2.02070000       1.21650000      -0.18140000
H       -2.17090000       3.52780000      -0.75340000
H       -1.72430000       3.53280000       0.94930000
H       -0.29290000       4.90890000      -0.99310000
H        1.53760000       5.11250000       0.68910000
H        2.24640000       2.84230000       1.83480000
H        0.50150000       2.71810000       2.13680000
H        2.08930000       1.38990000      -0.06220000
H        1.68830000       3.45350000      -1.70230000
