21
Properties=species:S:1:pos:R:3 gdb_73830=T pbc="F F F"
C        0.05730000       1.49950000       0.13860000
C        0.00090000       0.00930000       0.00310000
C       -0.03820000      -0.72940000      -1.12060000
C       -0.05440000      -0.26230000      -2.54390000
C       -0.03070000      -2.19210000      -0.80590000
C        1.21470000      -2.71200000      -0.08820000
C        0.02340000      -2.29430000       0.70900000
O       -0.60960000      -3.30560000       1.43220000
C       -0.01660000      -0.86460000       1.24510000
H        0.97270000       1.81980000       0.65330000
H        0.02460000       2.00980000      -0.82700000
H       -0.78130000       1.87160000       0.74240000
H       -0.06680000       0.82660000      -2.63030000
H        0.82200000      -0.63520000      -3.08930000
H       -0.93500000      -0.65000000      -3.07240000
H       -0.59790000      -2.89200000      -1.41140000
H        1.38440000      -3.78250000      -0.13230000
H        2.10780000      -2.09480000      -0.08840000
H       -1.55140000      -3.10280000       1.46190000
H        0.81960000      -0.65130000       1.92350000
H       -0.93320000      -0.70040000       1.83390000
