18
Properties=species:S:1:pos:R:3 gdb_80722=T pbc="F F F"
C        0.03820000       1.57670000      -0.37930000
C        0.26160000       0.12300000      -0.01830000
C        1.43520000      -0.67970000      -0.46960000
O        2.63320000       0.11650000      -0.48280000
C        2.60310000       0.19330000       0.96400000
C        2.87670000       1.60640000       1.49820000
C        2.89020000       1.62160000       2.95800000
N        2.89140000       1.60570000       4.11340000
C        1.22340000      -0.45250000       1.01720000
H        0.97030000       2.05020000      -0.69480000
H       -0.66310000       1.64820000      -1.21710000
H       -0.38490000       2.14550000       0.45520000
H       -0.64730000      -0.47730000      -0.01910000
H        1.42560000      -1.57020000      -1.08710000
H        3.35740000      -0.48960000       1.37550000
H        3.85190000       1.94190000       1.12620000
H        2.12770000       2.31470000       1.13890000
H        0.89900000      -1.13750000       1.78830000
