21
Properties=species:S:1:pos:R:3 gdb_95475=T pbc="F F F"
C       -0.14450000       1.57160000      -0.14460000
C        0.01090000       0.05470000      -0.03260000
O        0.72060000      -0.50830000      -1.14840000
C        2.07460000      -0.11020000      -1.31530000
C        2.85430000       0.01090000      -0.02880000
C        2.22180000      -0.21390000       1.11220000
C        2.37020000       0.08180000       2.58840000
C        0.81780000       0.31450000       2.60100000
C        0.73240000      -0.43710000       1.23020000
H        0.80430000       2.09570000       0.00400000
H       -0.52960000       1.82740000      -1.13590000
H       -0.85500000       1.93960000       0.60200000
H       -0.98190000      -0.40030000      -0.11340000
H        2.51450000      -0.86540000      -1.97900000
H        2.13320000       0.85050000      -1.85770000
H        3.88230000       0.35880000      -0.09010000
H        2.64910000      -0.80140000       3.17420000
H        3.01690000       0.91250000       2.88350000
H        0.25610000      -0.11130000       3.43530000
H        0.57480000       1.37520000       2.51090000
H        0.48630000      -1.49260000       1.39390000
