18
Properties=species:S:1:pos:R:3 gdb_47061=T pbc="F F F"
O       -0.00820000      -0.01600000       0.19880000
C       -0.00720000       1.17630000       0.02480000
N       -1.13140000       1.90120000      -0.30740000
C       -1.32770000       3.32010000      -0.05730000
C       -1.63250000       3.73200000       1.41930000
C       -0.15940000       4.20160000       1.57970000
C        0.03770000       4.05430000       0.04260000
C        1.18660000       3.20110000      -0.44870000
O        1.14710000       1.88920000       0.12880000
H       -1.95640000       1.31860000      -0.29640000
H       -2.03120000       3.70230000      -0.80170000
H       -2.35360000       4.55170000       1.47730000
H       -1.96630000       2.92320000       2.07310000
H       -0.00910000       5.20220000       1.98870000
H        0.45530000       3.49660000       2.14390000
H        0.03350000       5.01230000      -0.48320000
H        1.16130000       3.11350000      -1.54310000
H        2.15660000       3.61310000      -0.15790000
