17
Properties=species:S:1:pos:R:3 gdb_10715=T pbc="F F F"
N        1.06050000      -1.09260000       0.65220000
C       -0.08660000      -0.36510000       0.75620000
O       -0.10000000       0.70220000       1.35890000
C       -1.32450000      -0.88900000       0.08050000
C       -2.57570000      -0.10350000       0.45520000
O       -2.50780000       1.25190000       0.07800000
C       -1.20380000      -1.40110000      -1.34560000
C       -1.48660000      -2.36390000      -0.23290000
H        1.87820000      -0.73470000       1.11740000
H        1.09680000      -2.01550000       0.25990000
H       -3.43740000      -0.53810000      -0.06400000
H       -2.75250000      -0.21400000       1.53690000
H       -1.73820000       1.59540000       0.55530000
H       -2.00740000      -1.13830000      -2.02460000
H       -0.21880000      -1.40520000      -1.79880000
H       -0.71700000      -3.06170000       0.08020000
H       -2.48980000      -2.76780000      -0.14360000
