15
Properties=species:S:1:pos:R:3 gdb_12599=T pbc="F F F"
C       -0.22140000       1.54890000      -0.02550000
C        0.07180000       0.04850000       0.00940000
C        0.84020000      -0.49260000      -1.17540000
N        0.63270000      -0.18980000      -2.38010000
O        1.80700000      -1.37830000      -0.75940000
C        1.91250000      -1.42650000       0.66240000
C        0.90140000      -0.41350000       1.20000000
O        0.80530000      -0.05960000       2.34350000
H        0.70580000       2.12460000      -0.09250000
H       -0.83280000       1.78800000      -0.89710000
H       -0.74660000       1.84580000       0.88530000
H       -0.87870000      -0.50340000       0.06800000
H        1.28250000      -0.68150000      -2.99620000
H        1.68350000      -2.43610000       1.02400000
H        2.93030000      -1.16840000       0.97350000
