17
Properties=species:S:1:pos:R:3 gdb_114593=T pbc="F F F"
O        0.05940000       1.35630000      -0.30900000
C        0.07020000       0.03950000       0.20750000
C       -1.32130000      -0.56960000       0.09820000
N       -1.86580000      -0.54710000      -1.30860000
C       -2.19400000      -1.97860000      -1.21090000
C       -0.94610000      -2.77070000      -1.07930000
C       -1.51020000      -2.10040000       0.16910000
C       -1.88360000      -2.82830000       1.33140000
N       -2.19580000      -3.40920000       2.28380000
H       -0.23290000       1.27470000      -1.22580000
H        0.80470000      -0.59230000      -0.31370000
H        0.37330000       0.10650000       1.25740000
H       -2.00480000      -0.07080000       0.79100000
H       -2.70860000       0.01560000      -1.34740000
H       -3.14170000      -2.38450000      -1.54160000
H       -1.06610000      -3.84840000      -1.08320000
H       -0.02650000      -2.40180000      -1.52150000
