20
Properties=species:S:1:pos:R:3 gdb_115187=T pbc="F F F"
C        0.06600000       1.65740000       0.06530000
C        0.12260000       0.12740000       0.08200000
C        0.68150000      -0.50170000      -1.21670000
C        0.76290000      -2.03380000      -1.13150000
N       -0.55660000      -2.62920000      -1.30340000
C       -1.40280000      -2.24470000      -2.31720000
O       -2.36380000      -2.91240000      -2.65940000
C       -1.07990000      -0.92670000      -2.92460000
C       -0.13870000      -0.12060000      -2.42650000
H        1.05260000       2.09110000      -0.13480000
H       -0.62360000       2.02850000      -0.69900000
H       -0.27530000       2.04330000       1.03040000
H        0.75650000      -0.20290000       0.91480000
H       -0.87660000      -0.28220000       0.26650000
H        1.70400000      -0.12660000      -1.35510000
H        1.46360000      -2.40140000      -1.89740000
H        1.15550000      -2.33800000      -0.15610000
H       -0.70450000      -3.57500000      -0.98270000
H       -1.69680000      -0.65470000      -3.77340000
H        0.03140000       0.85710000      -2.86980000
