19
Properties=species:S:1:pos:R:3 gdb_39192=T pbc="F F F"
C       -0.04680000       1.42800000      -0.47900000
C        1.33020000       1.64040000       0.20410000
O        1.23350000       2.27780000       1.47090000
C        1.77450000       1.41550000       2.46210000
C        1.42760000      -0.02360000       2.01140000
C       -0.00740000      -0.40470000       2.30180000
C       -0.77840000      -0.40990000       1.21400000
C       -0.01620000      -0.07770000      -0.03910000
C        1.44960000       0.11500000       0.46830000
H       -0.85460000       2.04000000      -0.07340000
H       -0.00310000       1.55560000      -1.56400000
H        2.10500000       2.11840000      -0.40710000
H        2.86720000       1.53700000       2.53740000
H        1.33100000       1.69340000       3.42320000
H        2.14880000      -0.74180000       2.41570000
H       -0.35450000      -0.59780000       3.31190000
H       -1.84650000      -0.60310000       1.21040000
H       -0.18450000      -0.79100000      -0.85060000
H        2.24540000      -0.42420000      -0.04370000
