10
Properties=species:S:1:pos:R:3 gdb_21818=T pbc="F F F"
O       -0.03900000      -0.06090000      -0.00030000
C       -0.00170000       1.13430000       0.00760000
N        1.18610000       1.88360000      -0.00020000
N        2.45200000       1.31510000      -0.01820000
C        3.22550000       2.33410000      -0.01920000
O        2.61090000       3.54540000      -0.00360000
C        1.24620000       3.27750000       0.00910000
O        0.37850000       4.09420000       0.02490000
H       -0.86980000       1.81230000       0.02220000
H        4.30350000       2.31510000      -0.03100000
