18
Properties=species:S:1:pos:R:3 gdb_38915=T pbc="F F F"
C        0.02990000       1.42700000       0.06550000
C        1.36820000       0.74650000      -0.04240000
C        1.74280000       0.10450000       1.30250000
C        0.43260000      -0.74770000       1.24930000
C        0.65040000      -2.22290000       0.93470000
O       -0.42700000      -2.75360000       0.13720000
C       -0.81210000      -1.98680000      -0.91380000
N       -0.59310000      -0.75150000      -1.11650000
C        0.05620000      -0.06490000      -0.06670000
H       -0.28160000       1.89960000       0.99550000
H       -0.29860000       1.93410000      -0.83570000
H        2.05040000       0.95800000      -0.85620000
H        2.64700000      -0.50910000       1.26430000
H        1.83100000       0.79560000       2.14690000
H       -0.27510000      -0.62550000       2.07570000
H        1.58090000      -2.35720000       0.36840000
H        0.69190000      -2.85230000       1.82600000
H       -1.38370000      -2.57810000      -1.62580000
