15
Properties=species:S:1:pos:R:3 gdb_130401=T pbc="F F F"
N        0.02890000       1.97460000       0.05730000
H       -0.17660000       2.03450000      -0.93430000
H        1.88920000       1.57570000       1.78760000
H       -0.44990000       2.75370000       0.49980000
C       -0.47610000       0.70480000       0.59690000
C        0.10470000       0.46560000       1.95280000
C       -0.31110000      -0.24970000       3.06350000
N        0.65490000      -0.13380000       4.03840000
N        1.62080000       0.60670000       3.59150000
N        1.29710000       0.96690000       2.33250000
C       -1.50640000      -0.98450000       3.22770000
C       -2.53280000      -1.60250000       3.34510000
H       -1.57100000       0.62750000       0.66590000
H       -0.15300000      -0.09540000      -0.08140000
H       -3.43330000      -2.15280000       3.46170000
