21
Properties=species:S:1:pos:R:3 gdb_87788=T pbc="F F F"
C        0.15070000       1.51060000      -0.31040000
C        0.06290000       0.02890000      -0.05640000
O        1.30820000      -0.69280000       0.00640000
C        0.52480000      -0.60280000       1.18300000
C        0.99020000       0.04680000       2.49450000
C        0.16340000      -1.02460000       3.22990000
C        0.36360000      -1.55800000       4.61390000
C       -0.87710000      -0.75800000       4.27750000
C       -0.05470000      -1.81420000       1.92620000
H        0.92580000       1.96830000       0.30930000
H        0.39210000       1.70730000      -1.36020000
H       -0.80700000       1.99540000      -0.09010000
H       -0.71160000      -0.49510000      -0.62110000
H        2.07020000      -0.05850000       2.64130000
H        0.70960000       1.09150000       2.65880000
H        0.25510000      -2.62660000       4.77150000
H        1.11870000      -1.09080000       5.23840000
H       -0.95850000       0.24880000       4.67580000
H       -1.82240000      -1.28740000       4.20830000
H       -1.08100000      -2.10250000       1.68020000
H        0.59360000      -2.69230000       1.83680000
