21
Properties=species:S:1:pos:R:3 gdb_60077=T pbc="F F F"
C       -0.11920000       1.51510000      -0.08600000
C        0.15450000       0.01210000      -0.15440000
O        1.27770000      -0.26500000      -0.99200000
C        0.47890000      -0.57580000       1.22060000
C        0.53470000      -2.10080000       1.25290000
C        1.80790000      -2.79170000       0.78920000
C        1.47870000      -2.76270000       2.25130000
C       -0.71630000      -2.76370000       0.99230000
C       -1.77390000      -3.29660000       0.77600000
H        0.74410000       2.04490000       0.32960000
H       -0.31470000       1.91860000      -1.08620000
H       -0.99500000       1.72990000       0.53510000
H       -0.73930000      -0.49890000      -0.54530000
H        1.05970000       0.02010000      -1.88460000
H        1.44740000      -0.17440000       1.54200000
H       -0.27220000      -0.23020000       1.93990000
H        1.69830000      -3.73010000       0.25890000
H        2.59020000      -2.14540000       0.41160000
H        2.04550000      -2.10290000       2.89990000
H        1.14140000      -3.67860000       2.72170000
H       -2.70130000      -3.77660000       0.58510000
