18
Properties=species:S:1:pos:R:3 gdb_54854=T pbc="F F F"
N        0.04790000       1.13960000      -0.48160000
C        0.07320000      -0.01740000       0.24690000
O        0.99020000      -0.30390000       0.99060000
C       -1.18470000      -0.85560000       0.13060000
C       -1.68270000      -1.48970000      -1.15270000
C       -0.69210000      -1.62170000      -2.29600000
O        0.51680000      -2.07740000      -1.70580000
C        0.19430000      -2.89640000      -0.58040000
C       -1.11370000      -2.34590000      -0.03790000
H        0.88250000       1.70370000      -0.49690000
H       -0.64470000       1.28930000      -1.19410000
H       -1.97010000      -0.50280000       0.79440000
H       -2.74250000      -1.47250000      -1.38030000
H       -1.08100000      -2.34060000      -3.03630000
H       -0.46040000      -0.68780000      -2.82010000
H        0.06230000      -3.94770000      -0.88070000
H        1.02890000      -2.81810000       0.11940000
H       -1.73870000      -2.98680000       0.57190000
