22
Properties=species:S:1:pos:R:3 gdb_111893=T pbc="F F F"
C       -0.00550000       1.56930000      -0.13060000
C        0.08570000       0.04190000      -0.07550000
C        0.70910000      -0.50380000       1.22390000
C       -0.08320000      -0.21980000       2.49020000
C       -0.36370000      -1.31680000       3.20240000
C       -1.12590000      -1.41280000       4.48530000
C        0.17060000      -2.52370000       2.49220000
N       -0.48690000      -2.73090000       1.16690000
C        0.81620000      -2.03080000       1.25080000
H        0.97910000       2.03370000      -0.00150000
H       -0.40450000       1.90270000      -1.09380000
H       -0.66290000       1.96460000       0.65040000
H       -0.90660000      -0.40490000      -0.19310000
H        0.68960000      -0.31220000      -0.92140000
H        1.72020000      -0.07660000       1.31750000
H       -0.40860000       0.78000000       2.75780000
H       -1.42090000      -0.42610000       4.85260000
H       -2.03360000      -2.01650000       4.35950000
H       -0.53120000      -1.90120000       5.26810000
H        0.51910000      -3.39310000       3.04120000
H       -0.30750000      -3.68740000       0.86380000
H        1.68830000      -2.51460000       0.82310000
