25
Properties=species:S:1:pos:R:3 gdb_88151=T pbc="F F F"
C       -0.01930000       1.62050000       0.08660000
C       -0.04130000       0.10780000       0.11390000
C        1.18180000      -0.69130000      -0.26230000
C        0.70450000      -0.68250000       1.17060000
C        1.50660000       0.04500000       2.26510000
C        1.60700000      -0.96660000       3.42290000
C        0.29650000      -1.75610000       3.31380000
C        0.12960000      -1.97730000       1.79760000
C       -1.28910000      -2.36720000       1.38550000
H        0.96040000       2.01620000       0.37080000
H       -0.24600000       1.99490000      -0.91800000
H       -0.75990000       2.04780000       0.77310000
H       -0.98720000      -0.31740000      -0.21080000
H        1.04580000      -1.60070000      -0.84140000
H        2.09210000      -0.14700000      -0.49980000
H        2.48720000       0.38520000       1.91910000
H        0.96420000       0.93560000       2.60590000
H        2.45770000      -1.64080000       3.26460000
H        1.74880000      -0.48660000       4.39540000
H        0.30110000      -2.69390000       3.87800000
H       -0.53790000      -1.15020000       3.69330000
H        0.79980000      -2.80170000       1.51300000
H       -2.01030000      -1.58660000       1.65110000
H       -1.37050000      -2.54710000       0.30800000
H       -1.59420000      -3.28960000       1.89150000
