19
Properties=species:S:1:pos:R:3 gdb_62172=T pbc="F F F"
O       -0.03250000       1.28440000       0.00580000
C       -0.07890000      -0.13910000      -0.00630000
C        0.57040000      -0.72150000      -1.26940000
C       -0.07760000      -0.18810000      -2.55710000
C        0.71170000      -0.56550000      -3.78750000
O        0.27360000      -1.15970000      -4.73800000
C        0.53310000      -0.71390000       1.27910000
C       -0.09820000      -0.09930000       2.51200000
O        0.51740000       0.40080000       3.41600000
H        0.87960000       1.55540000       0.16390000
H       -1.15160000      -0.37230000      -0.02280000
H        1.64170000      -0.47290000      -1.25990000
H        0.50500000      -1.81570000      -1.23930000
H       -1.10330000      -0.55020000      -2.67230000
H       -0.10520000       0.90810000      -2.49180000
H        1.78110000      -0.24520000      -3.75750000
H        0.36280000      -1.79920000       1.30980000
H        1.61510000      -0.54260000       1.31760000
H       -1.21130000      -0.14740000       2.52890000
