18
Properties=species:S:1:pos:R:3 gdb_15140=T pbc="F F F"
O       -0.30930000       0.47490000       0.72050000
C       -0.00900000       1.35380000      -0.04250000
C        1.40220000       1.89530000      -0.19220000
O        1.38020000       2.91910000      -1.14920000
C        2.65280000       3.49660000      -1.38860000
C        2.52690000       4.53910000      -2.46290000
C        2.07110000       5.93110000      -2.11000000
C        3.50640000       5.68580000      -2.49990000
H       -0.74710000       1.84940000      -0.71100000
H        1.75060000       2.25110000       0.79310000
H        2.06930000       1.06510000      -0.48360000
H        3.04330000       3.95130000      -0.46180000
H        3.36730000       2.71130000      -1.68880000
H        2.19740000       4.14780000      -3.42080000
H        1.42730000       6.45140000      -2.80990000
H        1.85590000       6.14140000      -1.06770000
H        4.26060000       5.73660000      -1.72130000
H        3.84830000       6.03280000      -3.46830000
