14
Properties=species:S:1:pos:R:3 gdb_16934=T pbc="F F F"
O       -0.00250000       0.01800000       0.08430000
C       -0.03760000       1.21510000       0.02430000
C       -1.26400000       2.14670000      -0.02180000
C       -0.53380000       3.49920000       0.02700000
O       -0.00700000       3.70430000       1.33570000
C        1.17070000       2.88110000       1.39230000
C        1.14420000       2.20340000       0.00270000
O        0.60330000       3.26920000      -0.79360000
H       -1.81200000       2.01880000      -0.96050000
H       -1.93920000       1.96400000       0.81610000
H       -1.07730000       4.38460000      -0.29880000
H        2.05840000       3.51100000       1.51280000
H        1.10530000       2.17330000       2.22470000
H        2.08490000       1.82960000      -0.39250000
