23
Properties=species:S:1:pos:R:3 gdb_59639=T pbc="F F F"
C        0.05960000       1.40090000      -0.22740000
C        0.14520000      -0.12080000      -0.04050000
C        0.87640000      -0.77760000      -1.21920000
C        0.78240000      -0.46320000       1.31530000
C        0.73490000      -1.95870000       1.73750000
C        2.20640000      -2.36570000       1.90020000
O        2.61230000      -2.99330000       0.69050000
C        2.87770000      -1.00330000       2.11420000
O        2.16950000      -0.10000000       1.29240000
H        1.06020000       1.84440000      -0.22040000
H       -0.41610000       1.65280000      -1.18070000
H       -0.52210000       1.87130000       0.57300000
H       -0.87980000      -0.51680000       0.00370000
H        1.88080000      -0.35800000      -1.32170000
H        0.98910000      -1.85680000      -1.08960000
H        0.33250000      -0.59700000      -2.15200000
H        0.28070000       0.13910000       2.09020000
H        0.19590000      -2.07630000       2.68070000
H        0.25480000      -2.59740000       0.99390000
H        2.36510000      -3.03660000       2.75630000
H        3.57020000      -3.08580000       0.70300000
H        2.81390000      -0.71790000       3.17940000
H        3.93250000      -0.98620000       1.81830000
