18
Properties=species:S:1:pos:R:3 gdb_29906=T pbc="F F F"
C        0.09430000       1.45310000      -0.02760000
N       -0.01140000       0.00980000       0.02980000
C       -0.20850000      -0.83720000      -1.01760000
N       -0.24920000      -2.09430000      -0.64090000
C       -0.07010000      -2.07470000       0.72670000
C        0.08350000      -0.78060000       1.15800000
C       -0.04510000      -3.32590000       1.50730000
C       -0.94130000      -4.45210000       1.12250000
N        0.50380000      -4.54570000       0.88050000
H        1.07570000       1.78830000       0.32200000
H       -0.03600000       1.77710000      -1.06190000
H       -0.67890000       1.92580000       0.58580000
H       -0.31240000      -0.47330000      -2.02980000
H        0.24710000      -0.35560000       2.13460000
H        0.22020000      -3.20780000       2.55490000
H       -1.32590000      -5.12090000       1.88810000
H       -1.59620000      -4.28480000       0.27250000
H        0.67770000      -4.32580000      -0.09960000
