19
Properties=species:S:1:pos:R:3 gdb_94340=T pbc="F F F"
O        0.47180000       0.87790000      -0.64340000
C        0.13340000      -0.26110000       0.10290000
C        0.02480000      -0.15370000       1.65370000
C       -1.27950000      -1.00450000       1.60410000
C       -1.31860000      -0.77080000       0.08930000
C       -2.41690000      -0.14650000      -0.70990000
C       -2.00780000      -1.59020000      -0.98180000
C       -1.30470000      -1.93900000      -2.18040000
C       -0.69920000      -2.24210000      -3.17500000
H       -0.12200000       1.58960000      -0.37970000
H        0.83480000      -1.03890000      -0.21380000
H        0.86040000      -0.53820000       2.24200000
H       -0.17150000       0.87910000       1.95870000
H       -1.11110000      -2.05320000       1.86540000
H       -2.13000000      -0.63420000       2.18180000
H       -3.38260000       0.01570000      -0.24190000
H       -2.13410000       0.58630000      -1.45870000
H       -2.69710000      -2.34750000      -0.61590000
H       -0.16850000      -2.50030000      -4.05730000
