21
Properties=species:S:1:pos:R:3 gdb_116389=T pbc="F F F"
C       -0.09920000       1.56710000       0.01220000
C        0.01920000       0.04080000       0.00850000
C        0.76030000      -0.51560000      -1.21280000
N        2.17030000      -0.12160000      -1.20770000
C        2.91460000      -0.73670000      -2.29720000
C        3.00490000      -2.23050000      -2.01320000
N        1.67270000      -2.75090000      -1.74690000
C        0.60490000      -2.04380000      -1.27520000
O       -0.44240000      -2.58960000      -0.97500000
H        0.87760000       2.05960000       0.07950000
H       -0.59830000       1.93090000      -0.89350000
H       -0.68530000       1.90680000       0.87140000
H        0.54060000      -0.29660000       0.91160000
H       -0.97200000      -0.41850000       0.02000000
H        0.24000000      -0.15290000      -2.12400000
H        2.23820000       0.88810000      -1.26170000
H        2.44500000      -0.58130000      -3.28690000
H        3.92230000      -0.31270000      -2.33580000
H        3.43020000      -2.75680000      -2.87510000
H        3.66810000      -2.39610000      -1.15290000
H        1.53310000      -3.75120000      -1.73700000
