18
Properties=species:S:1:pos:R:3 gdb_22495=T pbc="F F F"
C       -0.09220000       1.50120000       0.04980000
N        0.03710000       0.01410000       0.05360000
H       -0.87480000      -0.42140000      -0.10120000
H        0.62790000      -0.29290000      -0.72340000
C        0.63750000      -0.59420000       1.33320000
C        0.82930000      -2.10140000       1.19730000
C        1.59350000      -2.59360000       2.38790000
N        0.89080000      -3.34380000       3.26860000
O        1.46980000      -3.74460000       4.30110000
C        2.92770000      -2.15630000       2.53040000
N        4.00690000      -1.71500000       2.56400000
H        0.90000000       1.93080000       0.18840000
H       -0.51980000       1.83360000      -0.89750000
H       -0.73780000       1.79250000       0.87840000
H        1.59460000      -0.08760000       1.47990000
H       -0.04450000      -0.33820000       2.14620000
H       -0.14020000      -2.61470000       1.21130000
H        1.33010000      -2.31190000       0.23420000
