25
Properties=species:S:1:pos:R:3 gdb_121845=T pbc="F F F"
C       -0.07010000       1.46850000      -0.27660000
C       -0.01940000      -0.03610000      -0.07410000
O       -1.34280000      -0.52370000       0.03640000
C       -1.42840000      -1.92700000       0.20590000
C       -2.91590000      -2.31040000       0.15000000
C       -3.66500000      -1.70180000       1.34730000
O       -3.45480000      -1.80500000      -1.07210000
C       -3.04290000      -3.84090000       0.08940000
C       -4.47890000      -4.35280000      -0.05850000
H        0.94180000       1.87480000      -0.36420000
H       -0.62220000       1.71590000      -1.18800000
H       -0.56720000       1.95390000       0.56810000
H        0.49280000      -0.52590000      -0.91870000
H        0.54960000      -0.28560000       0.83660000
H       -0.88650000      -2.43720000      -0.60590000
H       -0.97680000      -2.23030000       1.16420000
H       -3.46310000      -0.62920000       1.40720000
H       -4.74160000      -1.84410000       1.23360000
H       -3.34920000      -2.16100000       2.29070000
H       -3.12040000      -0.90280000      -1.14980000
H       -2.45190000      -4.18700000      -0.76690000
H       -2.58120000      -4.26850000       0.98850000
H       -4.96120000      -3.89110000      -0.92360000
H       -4.48540000      -5.43780000      -0.20050000
H       -5.08560000      -4.13430000       0.82560000
