20
Properties=species:S:1:pos:R:3 gdb_101864=T pbc="F F F"
C        0.09680000       1.51330000      -0.10860000
C        0.10340000      -0.01050000       0.00990000
C        0.67770000      -0.49060000       1.34490000
O       -0.08370000      -0.02690000       2.44270000
O       -1.21670000      -0.56550000      -0.02580000
C       -1.87060000      -0.52480000      -1.27040000
C       -3.13400000      -1.38510000      -1.12850000
C       -3.91670000      -1.41620000      -2.35970000
N       -4.52170000      -1.42930000      -3.34380000
H        1.12420000       1.89050000      -0.10080000
H       -0.37020000       1.84970000      -1.03810000
H       -0.43610000       1.95070000       0.73890000
H        0.69750000      -0.44980000      -0.80820000
H        0.73190000      -1.58970000       1.32950000
H        1.69310000      -0.10220000       1.47320000
H       -0.99180000      -0.30120000       2.27000000
H       -2.15100000       0.49820000      -1.55690000
H       -1.22770000      -0.93000000      -2.06650000
H       -2.85010000      -2.40530000      -0.85050000
H       -3.75220000      -0.98860000      -0.31620000
