15
Properties=species:S:1:pos:R:3 gdb_131941=T pbc="F F F"
C       -0.01020000       1.43140000       0.01960000
N       -0.02500000      -0.02060000       0.02180000
C       -0.00630000      -0.81460000      -1.10970000
C        0.03570000      -2.12950000      -0.72580000
C        0.04460000      -2.11630000       0.69260000
C        0.00880000      -0.80680000       1.12950000
N        0.07470000      -3.25760000       1.55450000
O        0.10230000      -4.36620000       1.02660000
O        0.07220000      -3.05630000       2.76830000
H        0.99000000       1.81660000      -0.20350000
H       -0.71050000       1.80900000      -0.72930000
H       -0.31850000       1.79600000       1.00050000
H       -0.02650000      -0.36570000      -2.08990000
H        0.04840000      -3.00280000      -1.35520000
H        0.00490000      -0.40660000       2.12850000
