17
Properties=species:S:1:pos:R:3 gdb_49934=T pbc="F F F"
O       -0.43590000       0.52580000       0.87070000
C        0.51650000       0.68320000       0.15190000
C        1.27210000       1.98980000       0.00950000
C        1.37890000       2.88390000       1.25550000
C        2.89550000       2.61290000       1.13850000
C        3.56690000       1.89340000       2.30940000
C        4.94940000       1.52490000       2.03390000
C        6.09050000       1.23840000       1.79110000
O        2.69560000       1.74520000      -0.00900000
H        0.93760000      -0.14060000      -0.46650000
H        0.93430000       2.49330000      -0.90950000
H        1.07170000       3.92110000       1.12570000
H        0.89080000       2.46480000       2.13740000
H        3.48970000       3.48780000       0.85110000
H        3.52280000       2.55610000       3.18470000
H        2.97960000       1.00100000       2.56000000
H        7.09710000       0.97530000       1.57930000
