11
Properties=species:S:1:pos:R:3 gdb_25139=T pbc="F F F"
N       -0.01700000       1.32210000       0.01000000
C       -0.04090000       0.06630000       0.00320000
O        1.18980000      -0.67200000      -0.00710000
C        1.13620000      -2.00010000      -0.01400000
N        0.07370000      -2.71740000      -0.01240000
C       -1.09470000      -1.96400000      -0.00230000
N       -1.20240000      -0.67940000       0.00520000
C       -2.31360000      -2.74090000      -0.00060000
N       -3.27970000      -3.37470000       0.00060000
H        0.93820000       1.67710000       0.00710000
H        2.12480000      -2.45220000      -0.02150000
