24
Properties=species:S:1:pos:R:3 gdb_122357=T pbc="F F F"
C        3.47170000       1.19800000      -8.22800000
O        3.80380000       0.92780000      -6.88840000
C        3.26010000      -0.28740000      -6.42170000
C        3.67290000      -0.47310000      -4.96500000
C        3.04330000      -1.71470000      -4.36440000
C        3.69310000      -3.06680000      -4.38490000
C        5.04860000      -3.33490000      -5.00510000
N        3.50800000      -2.34240000      -3.12470000
C        4.65000000      -1.80400000      -2.40160000
H        3.84730000       0.41760000      -8.90940000
H        2.38210000       1.27940000      -8.37180000
H        3.93420000       2.15130000      -8.49540000
H        2.15930000      -0.27530000      -6.51030000
H        3.62000000      -1.13220000      -7.03420000
H        4.76390000      -0.49330000      -4.91490000
H        3.35080000       0.41150000      -4.40180000
H        1.95360000      -1.69670000      -4.43080000
H        3.02570000      -3.92600000      -4.46430000
H        5.70060000      -2.46020000      -5.02860000
H        5.57310000      -4.12650000      -4.45830000
H        4.92200000      -3.68020000      -6.03700000
H        5.47480000      -1.41710000      -3.01640000
H        4.30430000      -0.98960000      -1.75650000
H        5.05530000      -2.58970000      -1.75550000
