21
Properties=species:S:1:pos:R:3 gdb_40713=T pbc="F F F"
C       -0.21170000       1.26080000      -0.32690000
C        1.22750000       1.09240000       0.09350000
C        0.30440000      -0.10130000       0.06790000
C       -0.14520000      -0.74980000       1.34720000
C       -1.39180000      -1.69370000       1.30390000
C       -0.62220000      -2.64460000       2.22050000
C       -1.06020000      -3.26480000       3.47150000
O       -0.80690000      -4.04440000       2.29190000
C        0.69860000      -1.93840000       1.91460000
H       -0.88370000       1.76570000       0.35970000
H       -0.42520000       1.44960000      -1.37310000
H        1.99890000       1.16580000      -0.66500000
H        1.52090000       1.48420000       1.06220000
H        0.46130000      -0.80180000      -0.75000000
H       -0.28130000       0.01500000       2.11960000
H       -2.34880000      -1.30040000       1.65490000
H       -1.53060000      -2.13090000       0.30940000
H       -0.35010000      -3.40830000       4.28560000
H       -2.10570000      -3.20280000       3.77280000
H        1.24790000      -2.45610000       1.12110000
H        1.38030000      -1.73690000       2.74430000
