16
Properties=species:S:1:pos:R:3 gdb_96719=T pbc="F F F"
C        0.19190000       1.47810000       0.01770000
N        0.12980000       0.02680000       0.03480000
C       -0.96130000      -0.61880000       0.03290000
N       -1.02470000      -2.03170000       0.05170000
C        0.07520000      -2.69040000      -0.05340000
N        0.11710000      -4.03250000      -0.02540000
H        0.98420000      -4.52730000      -0.12800000
H       -0.73390000      -4.56030000       0.08320000
C       -2.37120000      -0.02260000       0.02580000
O       -2.60130000       1.15860000      -0.01350000
O       -3.33180000      -0.95290000       0.06820000
H        1.24250000       1.77800000       0.06250000
H       -0.25880000       1.89370000      -0.88980000
H       -0.34640000       1.92350000       0.86050000
H       -2.84770000      -1.80850000       0.09070000
H        1.03680000      -2.18440000      -0.16740000
