20
Properties=species:S:1:pos:R:3 gdb_116975=T pbc="F F F"
C        0.28200000       1.33700000      -0.40630000
C        0.51630000      -0.15630000      -0.17220000
C       -0.09030000      -1.02580000      -1.29280000
C        0.12160000      -2.45470000      -1.09650000
C        0.31280000      -3.62860000      -0.90500000
C        0.55080000      -5.05210000      -0.69610000
O        1.80180000      -5.50790000      -1.22860000
C        1.88020000      -5.56860000      -2.57480000
N        2.95410000      -5.93820000      -3.12360000
H        0.73270000       1.66740000      -1.34880000
H       -0.78770000       1.57020000      -0.45100000
H        0.71930000       1.93490000       0.39860000
H        1.58950000      -0.36540000      -0.10540000
H        0.08190000      -0.46150000       0.78630000
H       -1.16760000      -0.82510000      -1.36900000
H        0.33860000      -0.72660000      -2.25880000
H        0.60480000      -5.28400000       0.37120000
H       -0.27240000      -5.64570000      -1.11800000
H        0.95110000      -5.27880000      -3.08350000
H        2.84200000      -5.94240000      -4.13530000
