15
Properties=species:S:1:pos:R:3 gdb_28167=T pbc="F F F"
C       -0.02160000       1.46280000       0.05980000
C       -0.00250000      -0.02520000      -0.03700000
N       -0.04980000      -0.72350000      -1.15170000
C       -0.00670000      -2.04410000      -0.74170000
C        0.06590000      -2.10490000       0.62010000
N        0.07040000      -0.82980000       1.10560000
O        0.11250000      -3.34490000       1.12280000
C        0.06560000      -4.15040000      -0.02040000
C       -0.00680000      -3.41870000      -1.16710000
H        0.88330000       1.85490000       0.53920000
H       -0.08110000       1.87070000      -0.94980000
H       -0.88360000       1.82620000       0.63190000
H        0.11560000      -0.51840000       2.06030000
H        0.09360000      -5.20680000       0.18370000
H       -0.05280000      -3.82470000      -2.16540000
