16
Properties=species:S:1:pos:R:3 gdb_118625=T pbc="F F F"
O        0.09310000       1.42320000      -0.14020000
C        0.06950000       0.01260000      -0.04380000
C       -1.36640000      -0.52470000       0.01520000
C       -1.42210000      -2.05470000       0.02070000
O       -0.78800000      -2.51820000       1.22250000
C       -0.24640000      -3.76440000       1.20650000
O        0.29340000      -4.22880000       2.15950000
C       -2.80870000      -2.54720000      -0.04010000
N       -3.89670000      -2.93030000      -0.09930000
H       -0.14150000       1.78830000       0.71880000
H        0.56560000      -0.35880000      -0.94850000
H        0.64420000      -0.35030000       0.81840000
H       -1.87400000      -0.15800000       0.91420000
H       -1.92530000      -0.15650000      -0.85040000
H       -0.88550000      -2.45020000      -0.85290000
H       -0.35640000      -4.27130000       0.22930000
