17
Properties=species:S:1:pos:R:3 gdb_44873=T pbc="F F F"
N       -0.06590000       1.20090000       0.04970000
C       -0.07590000      -0.05610000       0.02560000
O        1.02850000      -0.89650000       0.01570000
C        0.39860000      -2.21350000      -0.01690000
C       -0.70180000      -2.02310000      -1.08660000
C       -1.24200000      -1.01580000      -0.00500000
C       -0.71390000      -2.05380000       1.02250000
C       -1.39950000      -3.08050000       1.82100000
N       -0.67610000      -1.94970000       2.45710000
H        0.89280000       1.55420000       0.06850000
H        1.16180000      -2.98900000      -0.02100000
H       -0.38420000      -1.61060000      -2.04550000
H       -1.34460000      -2.89480000      -1.21240000
H       -2.24300000      -0.59710000       0.00130000
H       -2.47850000      -3.05520000       1.94640000
H       -0.96050000      -4.07480000       1.86690000
H        0.22310000      -2.24770000       2.82810000
