18
Properties=species:S:1:pos:R:3 gdb_10639=T pbc="F F F"
C        0.30400000       1.37080000       0.30840000
N       -0.22830000       0.13670000      -0.25720000
C        0.57760000      -0.46850000      -1.27750000
C        1.97750000      -1.03890000      -1.00060000
C        0.83430000      -1.97020000      -1.28910000
C        0.26290000      -2.88020000      -0.22400000
C        0.40540000       0.15460000      -2.57620000
N        0.28700000       0.65810000      -3.61100000
H        1.30540000       1.26530000       0.75800000
H        0.36800000       2.13140000      -0.47630000
H       -0.38480000       1.73850000       1.07350000
H       -0.47480000      -0.53050000       0.45990000
H        2.75260000      -0.90110000      -1.74530000
H        2.31200000      -0.96040000       0.02910000
H        0.82640000      -2.40360000      -2.28460000
H        0.36700000      -2.45970000       0.78100000
H       -0.79670000      -3.09160000      -0.40100000
H        0.79910000      -3.83460000      -0.22520000
