13
Properties=species:S:1:pos:R:3 gdb_949=T pbc="F F F"
O        0.09720000       1.36750000       0.13110000
C        0.06790000       0.00680000       0.04010000
C        0.07610000      -0.66460000      -1.18340000
C        0.04480000      -2.05680000      -1.20960000
C        0.00520000      -2.78540000      -0.02440000
C       -0.00280000      -2.10590000       1.19390000
C        0.02820000      -0.71730000       1.23340000
H        0.12260000       1.74020000      -0.75610000
H        0.10700000      -0.09880000      -2.11130000
H        0.05150000      -2.57000000      -2.16570000
H       -0.01910000      -3.86900000      -0.04790000
H       -0.03350000      -2.66250000       2.12500000
H        0.02250000      -0.17550000       2.17230000
