13
Properties=species:S:1:pos:R:3 gdb_3279=T pbc="F F F"
O        0.04370000       0.06750000      -0.60610000
C        0.01620000       1.17740000      -0.16770000
C       -1.11600000       2.12650000       0.29330000
C       -0.05100000       3.22250000       0.57230000
C        0.60430000       3.12330000       1.95750000
O        1.54630000       2.12090000       1.49750000
C        1.09330000       2.25050000       0.13080000
H       -1.79130000       2.36360000      -0.53530000
H       -1.71780000       1.78740000       1.14150000
H       -0.21450000       4.20610000       0.13870000
H        1.12950000       4.02930000       2.28320000
H       -0.02700000       2.75720000       2.77570000
H        1.90160000       2.44150000      -0.57990000
