20
Properties=species:S:1:pos:R:3 gdb_114780=T pbc="F F F"
C        0.01030000       1.42670000       0.00670000
O       -0.14740000       0.03140000      -0.10320000
C        0.62400000      -0.55500000      -1.14010000
C        2.11730000      -0.80450000      -0.77080000
C        2.16220000      -2.30270000      -0.45320000
C        1.11100000      -2.64710000       0.63130000
N        0.08380000      -3.01070000      -0.40710000
C        1.16560000      -2.95180000      -1.45020000
C        0.08580000      -1.94450000      -1.45140000
H        1.03980000       1.71630000       0.26720000
H       -0.26210000       1.93910000      -0.92970000
H       -0.65830000       1.76600000       0.80160000
H        0.54470000       0.07540000      -2.03970000
H        2.76340000      -0.57020000      -1.62420000
H        2.43250000      -0.18290000       0.07340000
H        3.15980000      -2.72760000      -0.34400000
H        1.35230000      -3.55120000       1.19530000
H        0.80530000      -1.84930000       1.31320000
H        1.33040000      -3.73290000      -2.18320000
H       -0.76600000      -2.03720000      -2.11610000
