23
Properties=species:S:1:pos:R:3 gdb_1094=T pbc="F F F"
C       -0.06710000       1.64270000       0.01150000
C        0.03410000       0.11370000       0.00230000
C       -1.34450000      -0.55980000       0.01190000
C       -1.38130000      -2.10900000       0.00400000
C       -0.68460000      -2.68210000       1.25230000
C       -2.85830000      -2.54630000       0.01570000
C       -0.70870000      -2.66850000      -1.26360000
H        0.92330000       2.10890000       0.00440000
H       -0.61380000       2.00930000      -0.86460000
H       -0.59660000       1.99980000       0.90200000
H        0.60070000      -0.20190000      -0.88190000
H        0.61770000      -0.21140000       0.87180000
H       -1.89670000      -0.20920000       0.89560000
H       -1.91350000      -0.19980000      -0.85710000
H       -1.13100000      -2.28550000       2.17150000
H       -0.77910000      -3.77330000       1.28200000
H        0.38380000      -2.44630000       1.26990000
H       -3.39090000      -2.16390000      -0.86220000
H       -2.94660000      -3.63840000       0.01060000
H       -3.37400000      -2.17360000       0.90770000
H        0.35930000      -2.43230000      -1.29910000
H       -0.80360000      -3.75940000      -1.30310000
H       -1.17250000      -2.26220000      -2.16970000
