22
Properties=species:S:1:pos:R:3 gdb_92727=T pbc="F F F"
C        0.19580000       1.59740000       0.03700000
C        0.01810000       0.07460000       0.00890000
C        0.55460000      -0.52820000      -1.30860000
C        0.67970000      -2.02920000      -1.28060000
C        0.95310000      -2.71850000      -0.16930000
C        1.11280000      -4.21330000      -0.13630000
C        1.11560000      -1.98950000       1.12120000
N        2.09580000      -0.86360000       1.14580000
C        0.65540000      -0.57970000       1.21980000
H        1.26000000       1.85600000       0.02920000
H       -0.27410000       2.06770000      -0.83320000
H       -0.25140000       2.03620000       0.93570000
H       -1.05570000      -0.15480000       0.06860000
H       -0.09790000      -0.21860000      -2.13340000
H        1.53860000      -0.08790000      -1.51870000
H        0.57830000      -2.55740000      -2.22610000
H        0.95210000      -4.65580000      -1.12300000
H        2.11720000      -4.49720000       0.20430000
H        0.40440000      -4.67720000       0.56280000
H        1.05830000      -2.59970000       2.01990000
H        2.51080000      -0.79740000       2.07210000
H        0.25530000      -0.25590000       2.18000000
