19
Properties=species:S:1:pos:R:3 gdb_111153=T pbc="F F F"
C       -0.20190000       1.52560000       0.01390000
C        0.13270000       0.03360000      -0.09600000
C        0.82460000      -0.50370000       1.14580000
C       -0.03870000      -0.84100000       2.40230000
O       -0.59960000      -2.00650000       1.67110000
C        0.85790000      -2.04400000       1.37840000
C        1.09820000      -1.76130000       2.86810000
C        2.21400000      -1.72520000       3.80090000
O        1.10790000      -2.65740000       3.93000000
H        0.69810000       2.12740000       0.18330000
H       -0.67720000       1.88980000      -0.90180000
H       -0.89050000       1.71840000       0.84360000
H       -0.77650000      -0.54800000      -0.27090000
H        0.78900000      -0.12980000      -0.96050000
H        1.76460000       0.01920000       1.35930000
H       -0.72840000      -0.22200000       2.97490000
H        1.22630000      -2.84470000       0.73780000
H        3.16740000      -2.17800000       3.53410000
H        2.26090000      -0.95830000       4.57220000
