17
Properties=species:S:1:pos:R:3 gdb_19167=T pbc="F F F"
O        0.11850000       1.36450000       0.02250000
C        0.04010000      -0.03450000       0.17210000
C       -1.39680000      -0.54090000       0.12390000
C       -2.48290000       0.33260000       0.58460000
O       -2.20980000       0.17310000      -0.82340000
C       -1.55080000      -2.03360000       0.10560000
C       -2.76330000      -2.66920000      -0.45800000
N       -1.47960000      -2.75340000      -1.18100000
H       -0.43130000       1.57920000      -0.74230000
H        0.62130000      -0.56170000      -0.60220000
H        0.48650000      -0.28460000       1.14100000
H       -3.41750000      -0.11120000       0.91950000
H       -2.24160000       1.31490000       0.98190000
H       -1.02320000      -2.53990000       0.91220000
H       -3.12010000      -3.60790000      -0.04490000
H       -3.52990000      -2.01460000      -0.86120000
H       -1.49750000      -2.06810000      -1.93490000
