14
Properties=species:S:1:pos:R:3 gdb_35207=T pbc="F F F"
N       -0.11290000      -1.13300000      -0.03320000
C       -0.05110000       0.02090000      -0.01640000
C        0.02330000       1.46460000      -0.02310000
O        0.61850000       2.07690000       1.13700000
C        1.32950000       2.14240000      -0.07830000
C        2.77090000       1.60730000      -0.23160000
C        3.10210000       2.94800000      -0.91560000
O        2.22790000       3.07100000      -2.04130000
C        1.72300000       3.44890000      -0.75490000
H       -0.86010000       1.96730000      -0.41040000
H        3.23940000       1.48590000       0.74810000
H        2.91820000       0.71220000      -0.83820000
H        4.04020000       3.48760000      -0.94370000
H        1.31640000       4.44420000      -0.62400000
