18
Properties=species:S:1:pos:R:3 gdb_75015=T pbc="F F F"
C       -0.16520000       1.51260000      -0.05300000
C       -0.01960000       0.03070000      -0.09450000
N       -0.27350000      -0.72870000      -1.08140000
C        0.05350000      -2.09460000      -0.66420000
C        1.30850000      -2.63970000      -1.37540000
O        2.40780000      -2.23040000      -0.57340000
C        1.99500000      -2.39880000       0.77220000
C        0.53140000      -1.94890000       0.81650000
O        0.41860000      -0.53440000       1.06810000
H        0.80190000       1.98060000       0.15620000
H       -0.54560000       1.87080000      -1.00870000
H       -0.84880000       1.80380000       0.75050000
H       -0.80950000      -2.75050000      -0.80370000
H        1.26480000      -3.73920000      -1.44220000
H        1.43460000      -2.22110000      -2.37500000
H        2.06420000      -3.45640000       1.07850000
H        2.64180000      -1.79810000       1.41530000
H       -0.06050000      -2.47430000       1.56820000
