17
Properties=species:S:1:pos:R:3 gdb_57765=T pbc="F F F"
C        0.00470000       1.57840000       0.09210000
C        0.00730000       0.04320000       0.09360000
O        0.76090000      -0.48690000       1.17830000
C       -1.35980000      -0.49510000       0.07350000
C       -2.48720000      -0.91870000       0.10750000
C       -3.83770000      -1.50230000       0.12010000
N       -3.89900000      -2.96950000       0.03060000
C       -4.56760000      -1.06360000       1.32770000
N       -5.12740000      -0.71240000       2.27440000
H        1.03580000       1.94030000       0.11070000
H       -0.49630000       1.96760000      -0.79880000
H       -0.52120000       1.96180000       0.97230000
H        0.53400000      -0.30910000      -0.80150000
H        0.29460000      -0.26540000       1.99260000
H       -4.39670000      -1.10810000      -0.73960000
H       -3.44190000      -3.25310000      -0.83180000
H       -3.35190000      -3.37040000       0.78800000
