15
Properties=species:S:1:pos:R:3 gdb_75749=T pbc="F F F"
O        0.18800000       1.32160000      -0.35340000
C       -0.00110000      -0.03450000      -0.05980000
C        0.53290000      -0.40700000       1.33490000
O        1.50250000       0.12100000       1.83180000
C       -0.39450000      -1.40160000       1.90980000
C       -1.51270000      -1.43750000       1.16540000
C       -1.45100000      -0.50010000       0.01390000
C       -2.58910000       0.31040000      -0.44550000
O       -2.16050000      -0.83960000      -1.17760000
H        0.94550000       1.60180000       0.18140000
H        0.51030000      -0.68030000      -0.79510000
H       -0.19590000      -1.95010000       2.82130000
H       -2.38520000      -2.05650000       1.34170000
H       -3.55620000       0.21960000       0.04690000
H       -2.37030000       1.27150000      -0.90480000
