14
Properties=species:S:1:pos:R:3 gdb_8750=T pbc="F F F"
C        0.21940000       1.65370000       0.46610000
C       -0.12330000       0.31530000      -0.19600000
C        0.47890000      -0.84570000       0.60240000
O        1.09520000      -1.75810000       0.12450000
C       -1.64230000       0.09960000      -0.26150000
O       -2.41880000       0.73010000       0.42100000
C       -2.08060000      -0.92980000      -1.18200000
C       -2.42270000      -1.78750000      -1.95400000
H        1.30260000       1.79850000       0.50140000
H       -0.22510000       2.48090000      -0.09220000
H       -0.17670000       1.69530000       1.48350000
H        0.27980000       0.23300000      -1.20980000
H        0.29700000      -0.77120000       1.69830000
H       -2.73510000      -2.54560000      -2.63100000
