13
Properties=species:S:1:pos:R:3 gdb_132153=T pbc="F F F"
C       -0.03090000       1.49900000      -0.00950000
C       -0.00720000       0.00220000      -0.02760000
C       -0.04040000      -0.72150000      -1.15090000
O       -0.01760000      -2.09680000      -1.14790000
C        0.04000000      -2.66690000       0.05920000
F        0.05670000      -3.96550000      -0.08970000
N        0.07730000      -2.12890000       1.19980000
C        0.05660000      -0.71470000       1.26930000
O        0.08980000      -0.13610000       2.33020000
H        0.86180000       1.88440000       0.49260000
H       -0.08190000       1.91720000      -1.01790000
H       -0.88850000       1.85550000       0.56930000
H       -0.08730000      -0.34160000      -2.16250000
