19
Properties=species:S:1:pos:R:3 gdb_76606=T pbc="F F F"
C        0.69400000       0.75080000       1.76140000
C        0.41180000      -0.19410000       0.61490000
C        0.23810000       0.24400000      -0.79830000
C        0.32400000       1.68440000      -1.25060000
C        1.48910000      -0.57890000      -0.42190000
C        2.82950000       0.01770000      -0.40170000
O        3.13600000       1.15470000      -0.08700000
C        3.98690000      -0.90320000      -0.82950000
O        3.86080000      -2.04950000      -1.17000000
H        1.39620000       1.53770000       1.48610000
H       -0.23760000       1.21720000       2.10040000
H        1.11940000       0.20570000       2.61030000
H       -0.18800000      -1.05480000       0.90140000
H       -0.46770000      -0.34910000      -1.37510000
H        1.12210000       2.22980000      -0.74690000
H        0.51230000       1.73640000      -2.32790000
H       -0.62520000       2.19550000      -1.05510000
H        1.49740000      -1.61330000      -0.74350000
H        4.96650000      -0.38080000      -0.78760000
