16
Properties=species:S:1:pos:R:3 gdb_30087=T pbc="F F F"
C       -0.41130000       1.38620000       0.02500000
N       -0.02310000      -0.01540000      -0.01950000
C        0.04590000      -0.71300000      -1.21560000
C        0.40080000      -1.99620000      -1.26050000
O        0.72000000      -2.70540000      -0.12390000
C        0.67690000      -2.09270000       1.09530000
N        0.96290000      -2.71160000       2.16110000
C        0.27810000      -0.63930000       1.17670000
N        0.21370000       0.00480000       2.27610000
H        0.38680000       1.98860000       0.46820000
H       -0.61440000       1.72920000      -0.99040000
H       -1.30240000       1.51510000       0.64610000
H       -0.20240000      -0.16650000      -2.11370000
H        0.47320000      -2.59240000      -2.15560000
H        1.21370000      -3.68060000       1.96390000
H        0.47110000      -0.62790000       3.03390000
