18
Properties=species:S:1:pos:R:3 gdb_83978=T pbc="F F F"
C       -0.02420000       1.44440000      -0.05830000
N       -0.00560000       0.00710000       0.02910000
C       -1.06880000      -1.00110000      -0.04210000
C       -1.71950000      -1.17740000      -1.41730000
O       -0.73670000      -1.80360000      -2.22910000
C       -0.06370000      -2.75250000      -1.40640000
C        0.05720000      -2.08690000      -0.03220000
C        1.03620000      -0.88710000       0.00950000
O        2.23030000      -0.73910000       0.00320000
H        1.01280000       1.78790000      -0.03890000
H       -0.48930000       1.79010000      -0.98980000
H       -0.56130000       1.89170000       0.78660000
H       -1.77790000      -0.96970000       0.78980000
H       -2.61700000      -1.81070000      -1.31680000
H       -2.00850000      -0.24020000      -1.90110000
H       -0.64390000      -3.68620000      -1.33130000
H        0.90140000      -2.97250000      -1.86890000
H        0.11070000      -2.77400000       0.81140000
