20
Properties=species:S:1:pos:R:3 gdb_98304=T pbc="F F F"
C       -0.82080000       0.86500000      -1.83570000
O       -0.88600000      -0.48370000      -1.35430000
C       -1.00960000      -0.61320000      -0.01780000
O       -1.02560000       0.31900000       0.74340000
C       -1.12420000      -2.08880000       0.37460000
C       -0.94960000      -2.26160000       1.87930000
N       -2.45150000      -2.55730000      -0.03720000
C       -2.58780000      -3.05240000      -1.40320000
C       -2.58270000      -3.99680000      -0.25380000
H       -0.72210000       0.79000000      -2.91860000
H       -1.72880000       1.41240000      -1.57050000
H        0.03960000       1.38510000      -1.40710000
H       -0.32730000      -2.63260000      -0.16480000
H       -1.03960000      -3.31770000       2.14830000
H        0.03200000      -1.90270000       2.19830000
H       -1.71270000      -1.69240000       2.41340000
H       -3.51660000      -2.79420000      -1.90340000
H       -1.70770000      -3.03420000      -2.04110000
H       -1.69520000      -4.61480000      -0.12480000
H       -3.50430000      -4.44530000       0.10530000
