17
Properties=species:S:1:pos:R:3 gdb_58402=T pbc="F F F"
C        0.38950000       1.53350000       0.19790000
C        0.17890000       0.03660000       0.03480000
O        0.77350000      -0.60520000       1.14540000
C       -1.32640000      -0.32970000      -0.02290000
O       -1.87820000       0.28430000      -1.20250000
C       -3.17560000       0.66110000      -1.16010000
O       -3.72770000       1.15490000      -2.09420000
C       -1.51800000      -1.77870000      -0.05930000
C       -1.63350000      -2.97490000      -0.08860000
H        1.45980000       1.75190000       0.22030000
H       -0.06610000       2.08090000      -0.62950000
H       -0.04760000       1.87760000       1.14100000
H        0.62770000      -0.30180000      -0.91120000
H        0.67070000      -1.55720000       1.02870000
H       -1.81150000       0.08330000       0.87200000
H       -3.64800000       0.47100000      -0.17750000
H       -1.76110000      -4.02970000      -0.11760000
