14
Properties=species:S:1:pos:R:3 gdb_48527=T pbc="F F F"
O       -0.82400000       0.92560000       0.74500000
C        0.08230000       0.84250000      -0.04810000
C        1.29340000       1.68220000       0.02760000
C        1.91140000       2.47160000       1.14390000
C        3.29920000       1.80190000       1.33210000
N        3.75790000       1.59270000      -0.09190000
C        2.66990000       1.73170000      -0.71990000
O        2.38450000       2.91950000      -1.42440000
C        1.49270000       3.12170000      -0.24670000
H        0.04450000       0.13450000      -0.90210000
H        1.30950000       2.78920000       1.99170000
H        4.05220000       2.46030000       1.77340000
H        3.22000000       0.89580000       1.94900000
H        0.77230000       3.92460000      -0.34770000
