21
Properties=species:S:1:pos:R:3 gdb_36845=T pbc="F F F"
C       -0.34940000       1.01220000      -0.31090000
C        1.02660000       1.09040000       0.32200000
C        0.40090000      -0.23980000       0.06140000
O        0.00660000      -0.96410000       1.19190000
C       -0.98980000      -1.89340000       0.96140000
C       -0.96430000      -3.12650000      -0.00070000
C       -2.31630000      -3.18390000       0.76630000
C       -1.52840000      -2.83110000       2.06320000
C       -2.46890000      -1.65690000       0.51320000
H       -1.19400000       1.27930000       0.31350000
H       -0.46010000       1.26070000      -1.36090000
H        1.87020000       1.39440000      -0.28710000
H        1.07620000       1.40260000       1.35880000
H        0.80380000      -0.85650000      -0.74070000
H       -1.02200000      -2.92450000      -1.07360000
H       -0.23610000      -3.90900000       0.22860000
H       -3.08970000      -3.94010000       0.65860000
H       -0.83680000      -3.58890000       2.44030000
H       -2.09540000      -2.35950000       2.87010000
H       -3.10710000      -1.10610000       1.20950000
H       -2.63090000      -1.34600000      -0.52170000
