22
Properties=species:S:1:pos:R:3 gdb_7771=T pbc="F F F"
C       -0.01310000       1.57010000       0.00070000
C        0.02270000       0.03990000      -0.00340000
C        0.70880000      -0.50930000      -1.26680000
C        1.00420000      -1.98300000      -1.16910000
C        0.95190000      -2.67110000      -0.02960000
C        0.63100000      -2.05960000       1.31410000
C        1.53930000      -2.62790000       2.41530000
C        0.71110000      -0.52550000       1.24740000
H        1.00100000       1.98600000       0.03580000
H       -0.50020000       1.96020000      -0.89980000
H       -0.55930000       1.95290000       0.86940000
H       -1.01390000      -0.32770000      -0.00590000
H        0.08290000      -0.31330000      -2.14770000
H        1.64440000       0.04310000      -1.44960000
H        1.26650000      -2.49350000      -2.09340000
H        1.15830000      -3.74010000      -0.03750000
H       -0.40380000      -2.33660000       1.57380000
H        2.59150000      -2.40160000       2.20960000
H        1.28680000      -2.20110000       3.39180000
H        1.44040000      -3.71620000       2.48890000
H        1.76850000      -0.22270000       1.23940000
H        0.27060000      -0.09110000       2.15340000
