19
Properties=species:S:1:pos:R:3 gdb_60728=T pbc="F F F"
C        0.06120000       1.60840000       0.72960000
C       -0.17160000       0.39420000      -0.16730000
C        0.67980000      -0.79700000       0.25970000
O        1.05980000      -1.66820000      -0.47940000
C       -1.65770000      -0.03970000      -0.17430000
O       -2.45550000       0.46960000       0.58220000
C       -2.03210000      -1.08490000      -1.16110000
C       -3.19720000      -1.99870000      -0.80380000
C       -3.39440000      -0.94370000      -1.83370000
H        1.10990000       1.91900000       0.70130000
H       -0.56030000       2.44700000       0.40930000
H       -0.20980000       1.38250000       1.76430000
H        0.09590000       0.59600000      -1.21170000
H        0.92160000      -0.81620000       1.34640000
H       -1.22150000      -1.50700000      -1.74110000
H       -3.11720000      -3.03300000      -1.11680000
H       -3.63920000      -1.83370000       0.17190000
H       -3.96890000      -0.06900000      -1.55110000
H       -3.45510000      -1.22840000      -2.87760000
