20
Properties=species:S:1:pos:R:3 gdb_102248=T pbc="F F F"
C       -0.31160000       1.36050000       0.74790000
C       -0.08230000      -0.08070000       0.28930000
C        0.58990000      -0.17050000      -1.08670000
O        1.89910000       0.42840000      -0.95310000
C        2.46020000       0.96450000      -2.06260000
C        3.83210000       1.49270000      -1.72970000
N        1.85180000       0.98030000      -3.17510000
C        0.70800000      -1.55260000      -1.54870000
C        0.77910000      -2.70260000      -1.88920000
H        0.63480000       1.90220000       0.82290000
H       -0.95600000       1.90230000       0.04680000
H       -0.79390000       1.38170000       1.72950000
H        0.53860000      -0.62160000       1.01160000
H       -1.03370000      -0.61910000       0.22430000
H        0.02900000       0.40770000      -1.82820000
H        4.47190000       0.67630000      -1.38110000
H        4.29250000       1.96180000      -2.60050000
H        3.76930000       2.22350000      -0.91770000
H        2.41900000       1.43050000      -3.88890000
H        0.84620000      -3.71190000      -2.21230000
