19
Properties=species:S:1:pos:R:3 gdb_94113=T pbc="F F F"
C       -0.37890000       1.26140000      -0.07110000
C        0.12370000      -0.17030000       0.09510000
C        0.91020000      -0.70670000      -1.11450000
O        1.89460000      -1.62340000      -0.59920000
C        1.83010000      -1.66310000       0.79260000
C        1.13950000      -0.38070000       1.23390000
O        1.00770000      -2.76430000       1.23600000
C        1.54370000      -3.99710000       1.13540000
O        0.93100000      -4.98930000       1.39380000
H        0.45340000       1.95420000      -0.24000000
H       -1.06300000       1.34630000      -0.92190000
H       -0.91880000       1.59520000       0.82020000
H       -0.72720000      -0.83540000       0.27770000
H        0.27820000      -1.23230000      -1.83670000
H        1.43970000       0.09880000      -1.64020000
H        2.84440000      -1.81060000       1.17770000
H        1.87280000       0.43320000       1.25410000
H        0.68660000      -0.47280000       2.22190000
H        2.59950000      -3.98470000       0.80500000
