14
Properties=species:S:1:pos:R:3 gdb_129180=T pbc="F F F"
N       -0.02430000       1.34730000       0.08700000
C       -0.02100000       0.07700000       0.00330000
N        1.07090000      -0.80900000      -0.12630000
C        0.71190000      -2.23100000      -0.01610000
C       -0.77420000      -2.09550000      -0.00270000
C       -1.19000000      -0.80810000       0.00480000
C       -2.60300000      -0.92800000       0.00580000
N       -2.97850000      -2.18660000      -0.00150000
O       -1.78000000      -2.95510000      -0.00990000
H        0.92320000       1.72730000       0.06460000
H        1.97570000      -0.50920000       0.20010000
H        1.08140000      -2.81600000      -0.86790000
H        1.09560000      -2.69680000       0.90250000
H       -3.36470000      -0.16190000       0.01300000
