21
Properties=species:S:1:pos:R:3 gdb_120700=T pbc="F F F"
C       -1.08090000       1.25370000      -0.67060000
C       -0.54990000      -0.17440000      -0.52740000
C        0.89380000      -0.32730000      -1.02890000
C        1.40700000      -1.73570000      -0.85550000
O        0.92580000      -2.75250000      -1.74000000
C        2.31870000      -2.43740000      -1.78470000
C        2.88750000      -1.80470000      -3.03420000
C        1.97500000      -1.66580000      -4.23270000
O        4.05600000      -1.49110000      -3.05040000
H       -0.47280000       1.96340000      -0.09880000
H       -1.06930000       1.57780000      -1.71710000
H       -2.11100000       1.33140000      -0.31010000
H       -0.60060000      -0.48400000       0.52470000
H       -1.19060000      -0.86990000      -1.08220000
H        0.95550000      -0.02150000      -2.07790000
H        1.55560000       0.34650000      -0.46830000
H        1.45590000      -2.06620000       0.18500000
H        2.98530000      -3.18630000      -1.35510000
H        1.00600000      -1.24100000      -3.96290000
H        2.46670000      -1.06870000      -5.00140000
H        1.76550000      -2.66780000      -4.62780000
