23
Properties=species:S:1:pos:R:3 gdb_101812=T pbc="F F F"
C        0.15440000       1.52540000       0.03770000
C       -0.00200000       0.00540000      -0.05220000
C       -1.44460000      -0.41010000      -0.31680000
O        0.77600000      -0.54670000      -1.11520000
C        2.16800000      -0.64710000      -0.87720000
C        2.77130000      -1.25060000      -2.13930000
O        2.44500000      -0.44580000      -3.26720000
C        4.29330000      -1.33050000      -2.10920000
O        4.79590000      -1.84930000      -3.32290000
H        1.18890000       1.82010000       0.23400000
H       -0.16460000       1.99460000      -0.89870000
H       -0.46220000       1.92290000       0.85010000
H        0.33480000      -0.44760000       0.89470000
H       -1.79350000       0.01260000      -1.26460000
H       -1.52420000      -1.49850000      -0.37730000
H       -2.10190000      -0.05380000       0.48160000
H        2.61470000       0.34090000      -0.69130000
H        2.36860000      -1.28730000      -0.00300000
H        2.36490000      -2.26590000      -2.27210000
H        1.49800000      -0.27350000      -3.20720000
H        4.70000000      -0.32660000      -1.90190000
H        4.62220000      -2.00170000      -1.30870000
H        4.34040000      -1.36330000      -4.02110000
