18
Properties=species:S:1:pos:R:3 gdb_72622=T pbc="F F F"
C        0.08980000       1.58570000       0.04380000
C        0.12310000       0.08690000       0.03290000
C        0.57050000      -0.79960000      -1.14270000
C        1.21680000      -1.80740000      -0.13110000
C        0.71240000      -0.91560000       1.00540000
O        1.38140000      -0.65090000       2.17560000
C       -0.80940000      -0.78040000       0.89550000
C       -1.47350000      -0.16690000       2.00780000
N       -2.01330000       0.30190000       2.91850000
H        1.04520000       1.99140000      -0.30500000
H       -0.69880000       1.96710000      -0.61460000
H       -0.09640000       1.97130000       1.04950000
H       -0.22980000      -1.18950000      -1.77840000
H        1.31370000      -0.30740000      -1.77360000
H        0.86110000      -2.84230000      -0.14640000
H        2.30710000      -1.80300000      -0.18800000
H        1.02750000      -1.19970000       2.88490000
H       -1.38770000      -1.57180000       0.42210000
