17
Properties=species:S:1:pos:R:3 gdb_108897=T pbc="F F F"
O        0.12220000       1.40540000       0.08570000
C        0.04690000       0.03440000      -0.18810000
C       -1.36480000      -0.47370000      -0.07350000
N       -2.33200000       0.32220000       0.18690000
C       -3.56720000      -0.49720000       0.17550000
C       -3.06400000      -1.97870000       0.17010000
N       -1.68480000      -1.79990000      -0.30440000
C       -4.46630000      -0.19750000       1.28250000
C       -5.21810000       0.01850000       2.19420000
H       -0.79260000       1.68940000       0.24130000
H        0.41480000      -0.18870000      -1.20300000
H        0.68820000      -0.53370000       0.50670000
H       -4.09350000      -0.28870000      -0.76700000
H       -3.09670000      -2.40380000       1.18060000
H       -3.64490000      -2.61540000      -0.50050000
H       -1.00270000      -2.50340000      -0.05870000
H       -5.87940000       0.22530000       2.99900000
