14
Properties=species:S:1:pos:R:3 gdb_44726=T pbc="F F F"
O        0.07360000       0.06290000      -0.58340000
C        0.04780000       1.16590000      -0.13220000
C       -1.03230000       2.02660000       0.56060000
C       -0.00940000       3.18430000       0.60990000
O        0.76820000       3.18290000       1.83050000
C        1.85750000       2.47850000       1.20200000
C        2.26460000       1.26840000       1.91900000
N        2.59640000       0.31880000       2.48700000
C        1.06760000       2.32820000      -0.12920000
H       -1.88530000       2.20960000      -0.10210000
H       -1.39590000       1.67290000       1.52790000
H       -0.32250000       4.18520000       0.31430000
H        2.73170000       3.13150000       1.09240000
H        1.58830000       2.57090000      -1.05340000
