16
Properties=species:S:1:pos:R:3 gdb_18203=T pbc="F F F"
N       -0.47350000      -0.95370000      -0.89450000
C       -0.25650000       0.08770000      -0.44200000
C        0.02450000       1.40000000       0.13430000
C       -0.34020000       1.50950000       1.64120000
C        0.65760000       2.56840000       2.16310000
N        1.85990000       2.53300000       1.30940000
C        2.40610000       1.18370000       1.10090000
C        1.50610000       1.79190000       0.09010000
H       -0.54270000       2.14380000      -0.43760000
H       -1.38230000       1.79890000       1.78810000
H       -0.20060000       0.54420000       2.13230000
H        0.23220000       3.57400000       2.07910000
H        0.93050000       2.40920000       3.21020000
H        3.47490000       1.15490000       0.91500000
H        2.03240000       0.35820000       1.70180000
H        1.89690000       2.16140000      -0.85240000
