6
Properties=species:S:1:pos:R:3 gdb_23=T pbc="F F F"
C        0.68100000       0.00000000       0.00000000
C       -0.68100000       0.00000000       0.00000000
C       -1.88770000       0.00000000       0.00000000
C        1.88770000       0.00000000       0.00000000
H       -2.94960000       0.00000000       0.00000000
H        2.94960000       0.00000000       0.00000000
