18
Properties=species:S:1:pos:R:3 gdb_78868=T pbc="F F F"
C        0.07290000       1.63040000       0.17020000
C        0.14760000       0.11230000       0.08200000
C        1.19510000      -0.60100000      -0.76670000
C        2.44320000      -0.80150000       0.03490000
N        1.28120000      -1.76760000       0.17060000
C        0.74430000      -0.74030000       1.22990000
C        2.18040000      -0.27340000       1.41000000
C        3.02940000      -0.32840000       2.59310000
O        2.63650000       0.92760000       2.00030000
H        1.03900000       2.07000000       0.42690000
H       -0.25530000       2.05310000      -0.78570000
H       -0.65050000       1.93970000       0.93230000
H       -0.83030000      -0.30850000      -0.17730000
H        1.19230000      -0.75160000      -1.84120000
H        3.38470000      -1.10610000      -0.40600000
H        0.14330000      -1.08500000       2.06900000
H        2.59290000      -0.53840000       3.56860000
H        4.08540000      -0.57520000       2.49360000
