12
Properties=species:S:1:pos:R:3 gdb_133374=T pbc="F F F"
N       -0.04410000       1.38590000       0.15620000
C       -0.05000000       0.01240000       0.03750000
N       -1.15980000      -0.66180000       0.02500000
N       -1.03480000      -2.00420000      -0.00040000
C        0.13900000      -2.75630000      -0.02980000
O        0.11710000      -3.96350000      -0.04200000
N        1.31360000      -1.98400000      -0.05050000
C        1.19730000      -0.72090000      -0.01430000
F        2.29360000       0.03080000      -0.04550000
H        0.75330000       1.85080000      -0.24980000
H       -0.93010000       1.82660000      -0.04510000
H       -1.90540000      -2.51530000       0.00240000
