16
Properties=species:S:1:pos:R:3 gdb_127890=T pbc="F F F"
C        0.02670000       1.34440000       0.01850000
N        0.00870000      -0.10810000      -0.01190000
C       -1.12720000      -0.70620000      -0.00910000
N       -2.35900000      -0.03010000       0.02040000
N       -3.47440000      -0.65360000       0.04870000
N       -3.47010000      -1.98430000       0.05190000
C       -2.34490000      -2.78340000       0.01470000
C       -1.13270000      -2.17290000      -0.02950000
N        0.08430000      -2.77430000      -0.12090000
H        1.06480000       1.68650000       0.04780000
H       -0.45680000       1.77920000      -0.86640000
H       -0.50040000       1.74880000       0.89260000
H       -4.39380000      -2.38480000       0.07660000
H       -2.50960000      -3.85270000       0.01500000
H        0.19520000      -3.73110000       0.16990000
H        0.84800000      -2.13060000       0.04900000
