21
Properties=species:S:1:pos:R:3 gdb_105970=T pbc="F F F"
C        0.15520000       1.52870000      -0.17690000
C       -0.08490000       0.03820000       0.10130000
C        0.65710000      -0.46800000       1.29710000
C        2.12880000      -0.83390000       1.46490000
C        2.06310000      -0.44710000       2.97030000
C        0.59220000      -0.07680000       2.81170000
C        0.98290000      -1.49670000       3.20300000
C        0.64820000      -2.29100000       4.42180000
C        1.04830000      -1.88630000       1.68960000
H        1.21570000       1.72650000      -0.36200000
H       -0.41190000       1.86400000      -1.05090000
H       -0.15210000       2.14240000       0.67650000
H       -1.16110000      -0.14160000       0.23270000
H        0.21610000      -0.55470000      -0.77280000
H        2.93030000      -0.81720000       0.73750000
H        2.80030000      -0.05500000       3.65930000
H        0.00080000       0.64790000       3.35760000
H       -0.36800000      -2.70040000       4.36940000
H        1.34000000      -3.13090000       4.55870000
H        0.70660000      -1.66370000       5.31840000
H        0.87150000      -2.81740000       1.16510000
