18
Properties=species:S:1:pos:R:3 gdb_96660=T pbc="F F F"
C       -1.20100000       0.71300000      -0.93220000
N       -0.46610000      -0.43820000      -0.46700000
C        0.75810000      -0.64290000      -0.74720000
C        1.72100000       0.24220000      -1.50820000
N        1.32550000      -1.85290000      -0.34710000
C        0.62870000      -2.82630000       0.36350000
N        1.24120000      -3.55600000       1.20730000
C       -0.81980000      -3.06480000      -0.02360000
O       -1.57290000      -3.64380000       0.71750000
H       -0.61740000       1.44820000      -1.50220000
H       -2.03020000       0.38160000      -1.56940000
H       -1.65140000       1.22320000      -0.07330000
H        2.72540000       0.17730000      -1.07880000
H        1.79000000      -0.07870000      -2.55310000
H        1.41210000       1.28670000      -1.48910000
H        2.32420000      -1.87520000      -0.19490000
H        0.58000000      -4.24250000       1.57810000
H       -1.10150000      -2.77140000      -1.04890000
