14
Properties=species:S:1:pos:R:3 gdb_20924=T pbc="F F F"
C       -0.11830000       1.58810000      -0.05310000
C        0.07070000       0.07170000      -0.04450000
N        0.76170000      -0.41550000      -1.22560000
N        0.15970000      -0.48520000      -2.44160000
N        0.99900000      -0.92990000      -3.28680000
N        2.16690000      -1.15360000      -2.62910000
C        2.08310000      -0.83860000      -1.28330000
O        2.91030000      -0.90960000      -0.40150000
H        0.84730000       2.10080000      -0.07840000
H       -0.70220000       1.90030000      -0.92300000
H       -0.65020000       1.90080000       0.85010000
H        0.68820000      -0.24540000       0.80000000
H       -0.89200000      -0.44360000       0.01890000
H        2.96720000      -1.51420000      -3.12010000
