17
Properties=species:S:1:pos:R:3 gdb_24053=T pbc="F F F"
C        0.03030000      -1.24320000      -0.09320000
C       -0.02320000      -0.04220000      -0.09530000
C       -0.05610000       1.41440000      -0.08850000
C        1.33320000       2.03110000       0.17540000
C        1.29450000       3.52730000       0.12010000
N        0.44050000       4.25750000      -0.56500000
C        0.80250000       5.56760000      -0.34520000
C        1.88930000       5.63320000       0.48220000
N        2.19440000       4.32020000       0.77550000
H        0.05950000      -2.30430000      -0.09880000
H       -0.43160000       1.79570000      -1.04360000
H       -0.76110000       1.77100000       0.67130000
H        1.70510000       1.69960000       1.15180000
H        2.03910000       1.64170000      -0.56940000
H        0.25680000       6.38400000      -0.79290000
H        2.45660000       6.45540000       0.88510000
H        2.94400000       4.00460000       1.36800000
