15
Properties=species:S:1:pos:R:3 gdb_97787=T pbc="F F F"
O        0.05850000       1.52890000      -0.18380000
C        0.04830000       0.15340000       0.16580000
C       -1.28930000      -0.43740000       0.17740000
C       -2.39720000      -0.90910000       0.13400000
C       -3.72910000      -1.44090000       0.12670000
O       -4.22290000      -2.01640000      -1.09050000
C       -4.00330000      -2.90220000       0.01070000
C       -2.95310000      -3.87500000      -0.10290000
C       -2.10070000      -4.71880000      -0.17350000
H       -0.40160000       1.61750000      -1.02530000
H        0.69490000      -0.43960000      -0.50030000
H        0.48960000       0.09590000       1.16700000
H       -4.47220000      -0.85290000       0.66550000
H       -4.91950000      -3.26280000       0.47870000
H       -1.34090000      -5.45770000      -0.24340000
