21
Properties=species:S:1:pos:R:3 gdb_122269=T pbc="F F F"
C        0.08040000       1.47250000       0.24100000
C       -0.03570000       0.00240000      -0.16980000
C       -1.43100000      -0.57890000       0.07970000
C       -1.54170000      -2.05400000      -0.33320000
C       -2.90600000      -2.64170000      -0.06040000
C       -3.07680000      -3.98680000       0.53840000
O       -3.28560000      -2.82380000       1.31890000
C       -4.05800000      -2.17620000      -0.90140000
O       -3.94600000      -1.55640000      -1.92800000
H        1.08500000       1.86250000       0.04970000
H       -0.63010000       2.09480000      -0.31410000
H       -0.13040000       1.60330000       1.30820000
H        0.21420000      -0.10240000      -1.23390000
H        0.70880000      -0.59190000       0.37680000
H       -1.68430000      -0.48800000       1.14340000
H       -2.17400000       0.00730000      -0.47360000
H       -1.33920000      -2.15540000      -1.40580000
H       -0.78860000      -2.64570000       0.19900000
H       -3.96730000      -4.57810000       0.32590000
H       -2.17750000      -4.55900000       0.76140000
H       -5.04850000      -2.46240000      -0.48180000
