19
Properties=species:S:1:pos:R:3 gdb_89474=T pbc="F F F"
C       -0.08150000       1.47410000       0.08030000
C        0.02300000      -0.02340000      -0.03160000
C        0.72160000      -0.63170000      -1.27070000
C        0.11580000      -2.07020000      -1.26720000
O        1.04590000      -3.13050000      -1.15090000
C       -0.76470000      -1.99570000       0.00230000
C        0.14450000      -1.91110000       1.23950000
O        0.64720000      -0.56830000       1.13560000
O       -1.25770000      -0.65410000      -0.06580000
H        0.91730000       1.91240000       0.14780000
H       -0.58980000       1.88610000      -0.79480000
H       -0.64220000       1.73710000       0.98000000
H        0.47200000      -0.07970000      -2.18060000
H        1.80640000      -0.65440000      -1.14600000
H       -0.53030000      -2.21850000      -2.14180000
H        1.57810000      -3.15590000      -1.95120000
H       -1.58360000      -2.71080000       0.05550000
H       -0.42220000      -2.02060000       2.17090000
H        0.96310000      -2.63360000       1.21150000
