17
Properties=species:S:1:pos:R:3 gdb_66856=T pbc="F F F"
O       -0.07270000       1.39840000       0.03470000
C        0.00820000       0.02080000       0.01050000
C       -1.31450000      -0.78260000       0.06980000
C       -0.73260000      -1.77310000      -0.89940000
C        0.50680000      -0.86440000      -1.16910000
N        1.75560000      -1.16460000      -0.44570000
C        1.08690000      -0.79920000       0.83760000
C        0.27210000      -1.96420000       1.39860000
N       -0.91400000      -2.10040000       0.52830000
H        0.79150000       1.75900000      -0.19290000
H       -2.31840000      -0.40240000       0.21630000
H       -1.22450000      -2.41900000      -1.61870000
H        0.59060000      -0.50730000      -2.19850000
H        2.06700000      -2.13340000      -0.49150000
H        1.72410000      -0.27920000       1.55900000
H        0.83990000      -2.90080000       1.42050000
H       -0.08920000      -1.76070000       2.41320000
