21
Properties=species:S:1:pos:R:3 gdb_78378=T pbc="F F F"
C       -0.05560000       1.57270000       0.06010000
C        0.03930000       0.06640000      -0.09920000
C        0.48900000      -0.74930000      -1.24540000
C        1.80770000      -0.31970000      -1.92530000
C        2.47490000      -0.40110000      -0.55350000
C        2.92510000       1.06660000      -0.77040000
N        2.10860000       1.13070000      -2.01470000
C        2.74100000       1.62460000      -3.21680000
N        1.19150000      -0.83570000       0.13410000
H        0.55780000       2.11770000      -0.65060000
H       -1.09930000       1.86490000      -0.10020000
H        0.20620000       1.86110000       1.08430000
H       -0.80450000      -0.41740000       0.39650000
H       -0.10220000      -1.58580000      -1.61090000
H        2.11870000      -0.92900000      -2.77810000
H        3.25640000      -1.11810000      -0.30790000
H        2.67680000       1.81850000      -0.01570000
H        4.00690000       1.10930000      -0.96820000
H        3.67840000       1.09480000      -3.47550000
H        2.05320000       1.52900000      -4.06370000
H        2.97970000       2.68730000      -3.10120000
