19
Properties=species:S:1:pos:R:3 gdb_46938=T pbc="F F F"
O        0.06740000      -0.05170000      -0.00140000
C       -0.02890000       1.15700000      -0.03920000
C       -1.38840000       1.83910000      -0.15990000
C       -1.35410000       3.20090000      -0.87860000
C       -0.16950000       4.05040000      -0.41650000
C        0.13200000       4.06400000       1.12490000
C        1.40980000       3.27270000       0.85280000
C        1.21120000       3.39450000      -0.64170000
C        1.18810000       2.02260000      -0.00420000
H       -2.06690000       1.13220000      -0.64470000
H       -1.76640000       1.96960000       0.86280000
H       -1.27630000       3.04610000      -1.96230000
H       -2.29860000       3.73020000      -0.70630000
H       -0.22820000       5.05780000      -0.83330000
H        0.36140000       5.07450000       1.47150000
H       -0.60820000       3.62960000       1.80310000
H        2.32740000       3.33920000       1.42510000
H        1.91960000       3.64410000      -1.42210000
H        2.09820000       1.44250000      -0.12050000
