17
Properties=species:S:1:pos:R:3 gdb_34378=T pbc="F F F"
C        0.11310000      -1.17270000      -0.25930000
C        0.03810000       0.01370000      -0.07840000
C       -0.00840000       1.45110000       0.10900000
C       -0.44560000       2.28930000      -1.14370000
C        0.96060000       2.95540000      -1.20350000
C        1.37230000       2.24100000       0.10730000
N        1.24580000       3.04580000       1.32180000
C        0.07440000       2.65810000       1.95360000
N       -0.69730000       1.83200000       1.35740000
H        0.16390000      -2.22290000      -0.40780000
H       -0.72160000       1.69300000      -2.01450000
H       -1.26570000       2.96650000      -0.89910000
H        1.55440000       2.63680000      -2.06390000
H        0.97840000       4.04560000      -1.14590000
H        2.30160000       1.66810000       0.08690000
H        2.06300000       3.22860000       1.88530000
H       -0.16930000       3.10240000       2.91520000
