15
Properties=species:S:1:pos:R:3 gdb_20940=T pbc="F F F"
C        0.00470000       1.47780000       0.14350000
C       -0.01420000      -0.00840000      -0.19700000
N       -1.36800000      -0.53990000      -0.08500000
C       -1.64580000      -1.85690000      -0.02590000
N       -2.82460000      -2.42490000      -0.13440000
C       -2.49680000      -3.73840000       0.05220000
N       -1.23740000      -4.00810000       0.25550000
O       -0.64170000      -2.71240000       0.19890000
H        1.02090000       1.87080000       0.05630000
H       -0.63130000       2.04940000      -0.54180000
H       -0.34910000       1.65060000       1.16370000
H        0.39040000      -0.17250000      -1.20620000
H        0.62110000      -0.56740000       0.49510000
H       -2.13280000       0.03010000      -0.41180000
H       -3.22880000      -4.53420000       0.03520000
