19
Properties=species:S:1:pos:R:3 gdb_24348=T pbc="F F F"
C       -0.01910000       1.54620000      -0.01640000
C        1.42290000       2.08400000       0.01110000
N        2.18580000       1.69360000       1.20120000
C        1.94180000       0.36600000       1.62320000
C        2.60930000      -0.35510000       2.58980000
N        2.01550000      -1.59700000       2.64980000
C        1.00470000      -1.68180000       1.72920000
C        0.92360000      -0.47270000       1.07370000
C       -0.01420000       0.00590000       0.00180000
H       -0.56190000       1.92710000       0.85830000
H       -0.53760000       1.91730000      -0.90750000
H        1.95410000       1.71130000      -0.87640000
H        1.43240000       3.17620000      -0.05200000
H        2.05190000       2.35720000       1.95400000
H        3.43120000      -0.09000000       3.23420000
H        2.30310000      -2.34020000       3.26000000
H        0.42390000      -2.58440000       1.62150000
H       -1.02820000      -0.37950000       0.15820000
H        0.30140000      -0.35860000      -0.98650000
