20
Properties=species:S:1:pos:R:3 gdb_52424=T pbc="F F F"
O        0.48600000       0.01830000       0.05180000
C        0.49560000       1.18050000       0.32470000
O        0.66240000       2.14610000      -0.59690000
C        0.70390000       3.50730000      -0.14750000
C        2.13130000       4.03940000      -0.17560000
C        2.20330000       5.52020000       0.20260000
N        3.58730000       5.97510000       0.22110000
C        4.11430000       6.49660000      -1.03670000
C        3.79830000       7.41220000       0.09400000
H        0.36150000       1.58400000       1.34860000
H        0.05600000       4.07060000      -0.82620000
H        0.27540000       3.57990000       0.86130000
H        2.75510000       3.46160000       0.51510000
H        2.54510000       3.89050000      -1.17910000
H        1.57990000       6.11540000      -0.49230000
H        1.78950000       5.67120000       1.20800000
H        5.14250000       6.23310000      -1.26630000
H        3.44730000       6.52460000      -1.89740000
H        2.92230000       8.05000000      -0.01500000
H        4.59120000       7.82940000       0.70790000
