13
Properties=species:S:1:pos:R:3 gdb_3784=T pbc="F F F"
C        0.04460000       1.40260000       0.12610000
N       -0.02780000       0.00170000      -0.24090000
C       -1.23660000      -0.65250000      -0.10990000
C       -2.52600000      -0.15890000      -0.07740000
N       -3.28590000      -1.28770000       0.01000000
N       -2.53950000      -2.39250000       0.04030000
N       -1.29050000      -2.01460000      -0.03070000
H        1.07630000       1.74630000       0.02520000
H       -0.56860000       2.00070000      -0.55780000
H       -0.29600000       1.60790000       1.15390000
H        0.74040000      -0.56710000       0.08480000
H       -2.94730000       0.82950000      -0.11090000
H       -4.28850000      -1.36870000       0.05770000
