18
Properties=species:S:1:pos:R:3 gdb_63197=T pbc="F F F"
C        0.06450000       1.53790000      -0.08870000
C       -0.02460000       0.01000000      -0.04230000
O       -1.38900000      -0.39960000       0.06690000
C        0.83130000      -0.61110000      -1.15390000
C        1.54880000      -1.62270000      -0.61650000
C        2.90830000      -1.25910000      -0.04040000
N        2.14840000      -1.09080000       1.29210000
C        1.07380000      -1.98840000       0.79090000
C        0.66480000      -0.64100000       1.18450000
H        1.10240000       1.88390000      -0.07520000
H       -0.41580000       1.92570000      -0.99370000
H       -0.45370000       1.95650000       0.77900000
H       -1.78130000      -0.31700000      -0.80850000
H        1.27290000       0.04840000      -1.89780000
H        3.62510000      -2.06440000       0.14180000
H        3.40810000      -0.37370000      -0.44240000
H        0.84430000      -2.95350000       1.22550000
H        0.30400000      -0.40600000       2.18150000
