20
Properties=species:S:1:pos:R:3 gdb_96763=T pbc="F F F"
C        0.21330000       1.38810000      -0.00380000
N       -0.01430000      -0.04350000       0.00850000
C       -1.15140000      -0.59720000       0.04830000
C       -1.33340000      -2.12210000       0.06770000
C       -0.59240000      -2.78700000       1.22850000
N       -2.78490000      -2.36310000       0.12770000
C       -3.32030000      -1.20870000       0.13950000
N       -2.47160000      -0.10440000       0.08760000
C       -2.95560000       1.26210000       0.09950000
H        1.20770000       1.58500000       0.40940000
H        0.22040000       1.77240000      -1.03310000
H       -0.50450000       1.98350000       0.57360000
H       -0.95360000      -2.53450000      -0.87560000
H       -0.98360000      -2.43330000       2.18740000
H       -0.71760000      -3.87170000       1.18560000
H        0.46960000      -2.53670000       1.17190000
H       -4.39180000      -1.02850000       0.17990000
H       -4.03510000       1.24740000      -0.07490000
H       -2.77500000       1.75940000       1.05870000
H       -2.49460000       1.85290000      -0.69490000
