19
Properties=species:S:1:pos:R:3 gdb_88236=T pbc="F F F"
C       -0.23180000       1.38620000      -0.17440000
N        0.03140000      -0.03660000      -0.00320000
C        1.40170000      -0.47740000      -0.17840000
C        0.78660000      -0.46560000       1.19230000
C        1.25040000       0.46730000       2.18150000
C        1.60720000       1.23380000       3.04410000
C        2.05780000       2.12120000       4.07750000
C        1.23520000       3.31480000       4.44510000
N        1.33270000       2.18590000       5.37260000
H        0.58190000       2.03550000       0.18060000
H       -0.39740000       1.57970000      -1.23860000
H       -1.14430000       1.65060000       0.36860000
H        1.54230000      -1.42310000      -0.69510000
H        2.16500000       0.27490000      -0.37120000
H        0.43310000      -1.41280000       1.59440000
H        3.13610000       2.19550000       4.19470000
H        1.73880000       4.22100000       4.76920000
H        0.31120000       3.47020000       3.89620000
H        0.49410000       1.61390000       5.30300000
