22
Properties=species:S:1:pos:R:3 gdb_57802=T pbc="F F F"
C       -0.06270000       1.48940000      -0.18420000
C       -0.07590000      -0.04470000      -0.03240000
C        0.81210000      -0.49880000       1.14320000
C       -1.44250000      -0.54830000       0.11400000
C       -2.57020000      -0.95020000       0.25040000
C       -3.92770000      -1.46940000       0.40540000
C       -4.01130000      -2.98210000       0.26210000
C       -5.23440000      -3.60370000      -0.29950000
N       -3.97300000      -3.60760000      -1.06450000
H        0.96070000       1.84720000      -0.33690000
H       -0.67060000       1.80610000      -1.03580000
H       -0.46340000       1.96860000       0.71460000
H        0.34390000      -0.47480000      -0.95270000
H        0.82170000      -1.58840000       1.23040000
H        1.84070000      -0.15330000       0.99780000
H        0.44170000      -0.08640000       2.08690000
H       -4.32470000      -1.18090000       1.38850000
H       -4.59240000      -1.00400000      -0.33630000
H       -3.44510000      -3.53030000       1.01200000
H       -5.56470000      -4.57940000       0.04530000
H       -6.03790000      -2.94320000      -0.61760000
H       -3.99980000      -2.88870000      -1.78450000
