22
Properties=species:S:1:pos:R:3 gdb_87715=T pbc="F F F"
C        0.17270000       1.44510000      -0.50800000
C        0.28030000      -0.03200000      -0.21670000
N        1.62040000      -0.54050000       0.15500000
C        0.53440000      -0.56340000       1.14030000
C        0.66570000       0.15340000       2.49040000
C        0.48030000      -1.23050000       3.17540000
O       -0.32260000      -1.33980000       4.32290000
C       -0.02420000      -1.83030000       1.81410000
C       -1.53840000      -2.00330000       1.71990000
H        0.79530000       2.01930000       0.18300000
H        0.50720000       1.66830000      -1.52680000
H       -0.86310000       1.78890000      -0.41000000
H       -0.31520000      -0.66960000      -0.87070000
H        1.75970000      -1.47220000      -0.23120000
H        1.59880000       0.68770000       2.67800000
H       -0.17650000       0.82550000       2.69460000
H        1.44450000      -1.66390000       3.45240000
H       -1.15860000      -0.89430000       4.15090000
H        0.47320000      -2.76280000       1.52340000
H       -2.07050000      -1.07020000       1.94090000
H       -1.83740000      -2.30990000       0.71270000
H       -1.88740000      -2.76540000       2.42400000
