25
Properties=species:S:1:pos:R:3 gdb_76734=T pbc="F F F"
C       -0.70000000       1.49100000      -0.51920000
C       -0.26370000       0.04310000      -0.31630000
C        1.04280000      -0.50620000      -1.01380000
C        1.88810000       0.40280000      -1.90090000
C        1.58480000      -0.91140000       0.36890000
C        2.37690000      -2.16210000       0.63020000
C        1.64450000       0.29670000       1.26960000
C        0.31350000      -0.37690000       1.04760000
C       -0.50670000      -0.94960000       2.16970000
H        0.08880000       2.20350000      -0.26010000
H       -0.98560000       1.67740000      -1.56050000
H       -1.56970000       1.72310000       0.10590000
H       -1.10390000      -0.61190000      -0.57380000
H        0.78720000      -1.40700000      -1.58340000
H        2.19710000       1.31700000      -1.38530000
H        2.79820000      -0.11360000      -2.22640000
H        1.33970000       0.70000000      -2.80180000
H        3.39460000      -2.08280000       0.22770000
H        2.46790000      -2.36210000       1.70330000
H        1.90790000      -3.03800000       0.16590000
H        2.08740000       0.11220000       2.24460000
H        1.85610000       1.29070000       0.88320000
H       -1.12960000      -0.18040000       2.64320000
H       -1.17720000      -1.74080000       1.81290000
H        0.12850000      -1.37860000       2.95220000
