17
Properties=species:S:1:pos:R:3 gdb_11130=T pbc="F F F"
O        0.07350000       1.24780000      -0.41020000
C        0.00570000      -0.12020000      -0.04250000
C       -1.45210000      -0.45240000       0.20350000
C       -2.35150000      -0.46050000      -1.06990000
N       -2.55880000      -1.89560000      -0.85270000
C       -1.77110000      -1.96790000       0.37610000
C       -3.28700000      -2.84580000      -1.47390000
O       -3.37240000      -3.99990000      -1.10340000
H        0.98830000       1.46540000      -0.61140000
H        0.40090000      -0.77160000      -0.83970000
H        0.59020000      -0.32530000       0.86900000
H       -1.84180000       0.17940000       1.00330000
H       -3.26490000       0.13960000      -1.00000000
H       -1.83030000      -0.20860000      -1.99970000
H       -0.91210000      -2.64570000       0.31200000
H       -2.35990000      -2.23420000       1.25960000
H       -3.80150000      -2.44960000      -2.37440000
