14
Properties=species:S:1:pos:R:3 gdb_125049=T pbc="F F F"
C       -0.02940000       1.54460000       0.05520000
C       -0.01340000       0.05030000       0.00750000
C       -0.01290000      -0.78290000      -1.08270000
N       -0.07650000      -0.54410000      -2.42880000
O       -0.00570000      -2.06910000      -0.70140000
N       -0.00380000      -2.14690000       0.69180000
C       -0.00780000      -0.88420000       1.08040000
C       -0.00450000      -0.56510000       2.47040000
N       -0.00060000      -0.24620000       3.58200000
H        0.81110000       1.98160000      -0.49740000
H       -0.95260000       1.95850000      -0.36650000
H        0.04530000       1.89330000       1.08810000
H        0.27820000       0.35300000      -2.72400000
H        0.23130000      -1.30890000      -3.01220000
