15
Properties=species:S:1:pos:R:3 gdb_5715=T pbc="F F F"
C        0.04910000       1.36130000      -0.19940000
C        1.46130000       1.90150000       0.19350000
C        2.11450000       0.62790000       0.64610000
C        3.29670000       0.05400000       1.04420000
N        3.00980000      -1.24300000       1.40280000
C        1.65770000      -1.52230000       1.23530000
C        1.11080000      -0.35540000       0.77250000
O       -0.13960000       0.07420000       0.44020000
H       -0.77040000       2.01040000       0.11710000
H       -0.01630000       1.21500000      -1.28500000
H        1.94260000       2.38930000      -0.65940000
H        1.39450000       2.64370000       0.99880000
H        4.30320000       0.43470000       1.10890000
H        3.69380000      -1.91910000       1.69030000
H        1.24700000      -2.49080000       1.46070000
