15
Properties=species:S:1:pos:R:3 gdb_80757=T pbc="F F F"
O        0.52560000       1.04120000      -0.29940000
C        0.14080000      -0.21880000       0.11650000
C       -0.55850000      -0.44480000       1.45480000
O       -1.04340000       0.71220000       2.10350000
C       -2.22420000       1.10440000       1.43500000
O       -2.16040000       0.57330000       0.11380000
C       -1.33040000      -0.57650000       0.17410000
C       -3.45100000       0.54370000       2.15970000
O       -4.33700000       1.23060000       2.59030000
H       -0.27970000       1.51810000      -0.53960000
H        0.83030000      -0.99980000      -0.19460000
H       -0.30600000      -1.26680000       2.11470000
H       -2.28250000       2.19520000       1.38590000
H       -1.77000000      -1.48110000      -0.23000000
H       -3.45120000      -0.56470000       2.25980000
