14
Properties=species:S:1:pos:R:3 gdb_15204=T pbc="F F F"
C       -0.09870000       1.55180000      -0.00850000
C        0.03470000       0.04820000       0.03740000
C        1.36550000      -0.63700000      -0.21010000
C        2.54780000       0.13590000      -0.46920000
N        3.49780000       0.75260000      -0.70180000
C        0.73170000      -0.65040000       1.18980000
C        1.31150000       0.10970000       2.26150000
N        1.75900000       0.71580000       3.13860000
H        0.78550000       2.04890000       0.39650000
H       -0.23550000       1.88830000      -1.04030000
H       -0.96650000       1.87290000       0.57480000
H       -0.81600000      -0.50210000      -0.35300000
H        1.34540000      -1.59050000      -0.72710000
H        0.33680000      -1.61180000       1.50050000
