18
Properties=species:S:1:pos:R:3 gdb_29703=T pbc="F F F"
C        0.03820000       1.46370000      -0.01940000
N        0.03320000       0.01840000      -0.00410000
C        0.06970000      -0.78720000      -1.10610000
N        0.17210000      -0.21500000      -2.39060000
C        0.08320000      -2.10770000      -0.69420000
C        0.04830000      -2.08600000       0.72740000
O        0.04690000      -3.14870000       1.59380000
C        0.00500000      -0.77840000       1.14830000
N       -0.03630000      -0.18850000       2.42950000
H        0.77880000       1.82480000      -0.73790000
H       -0.94160000       1.87580000      -0.29500000
H        0.28330000       1.80920000       0.98520000
H       -0.67920000       0.26080000      -2.67700000
H        0.37300000      -0.92970000      -3.07880000
H        0.10210000      -2.97510000      -1.33790000
H        0.09510000      -3.95660000       1.07590000
H        0.74240000      -0.49400000       3.00420000
H       -0.88540000      -0.42840000       2.93260000
