15
Properties=species:S:1:pos:R:3 gdb_127948=T pbc="F F F"
C       -0.00560000       1.41080000      -0.20670000
N        0.01270000      -0.03830000      -0.21100000
C       -1.06840000      -0.65240000       0.06540000
N       -2.28900000      -0.06460000       0.37770000
N       -3.47100000      -0.68440000       0.67980000
C       -3.43950000      -1.96410000       0.67130000
N       -2.31280000      -2.70580000       0.38280000
C       -1.07180000      -2.16110000       0.06630000
O       -0.11710000      -2.85430000      -0.17730000
H        0.98750000       1.78650000      -0.46210000
H       -0.71620000       1.82480000      -0.94150000
H       -0.27400000       1.82490000       0.77950000
H       -2.35520000       0.93930000       0.39480000
H       -4.34470000      -2.51050000       0.90270000
H       -2.35110000      -3.71570000       0.39260000
