18
Properties=species:S:1:pos:R:3 gdb_77436=T pbc="F F F"
C        0.06210000       1.58850000       0.07160000
C        0.10850000       0.09420000       0.04350000
N        0.73370000      -0.64510000      -1.06220000
C        1.25540000      -1.63040000      -0.19890000
O        1.86620000      -2.63900000      -0.41660000
C        0.71740000      -0.91240000       1.02820000
C        1.36690000      -0.77430000       2.37120000
C       -0.80280000      -0.83860000       0.80340000
O       -1.48430000      -0.33570000       1.91080000
H        1.05910000       2.01560000      -0.07150000
H       -0.58780000       1.98040000      -0.72030000
H       -0.33230000       1.92960000       1.03220000
H        0.26370000      -0.87320000      -1.93290000
H        2.31350000      -0.22910000       2.30280000
H        0.70940000      -0.25120000       3.06870000
H        1.58260000      -1.76500000       2.78480000
H       -1.30980000      -1.64860000       0.27340000
H       -2.31260000       0.05030000       1.60650000
