21
Properties=species:S:1:pos:R:3 gdb_86671=T pbc="F F F"
C       -0.43200000       1.45300000      -0.09910000
C       -0.03530000      -0.00940000      -0.02350000
O        1.07860000      -0.30710000      -0.90510000
C        1.94230000      -0.63010000       0.18020000
C        3.07470000       0.35250000       0.38900000
O        3.15050000       1.44290000      -0.11410000
C        0.76120000      -0.53690000       1.21550000
C        0.92190000       0.39510000       2.41380000
C        0.28340000      -1.91930000       1.65970000
H        0.43460000       2.10160000       0.04590000
H       -0.84850000       1.66600000      -1.08850000
H       -1.19640000       1.69060000       0.64880000
H       -0.89560000      -0.64540000      -0.27190000
H        2.37740000      -1.63710000       0.08810000
H        3.85710000      -0.01890000       1.09360000
H        1.29180000       1.38400000       2.13400000
H       -0.04000000       0.52810000       2.92080000
H        1.61700000      -0.02910000       3.14700000
H        0.99260000      -2.37770000       2.35780000
H       -0.68490000      -1.84610000       2.16800000
H        0.16580000      -2.59170000       0.80420000
