15
Properties=species:S:1:pos:R:3 gdb_64834=T pbc="F F F"
C       -0.02550000       1.55600000      -0.02370000
C        0.01270000       0.02270000       0.02250000
O        0.75280000      -0.47220000      -1.10580000
C        1.82070000      -1.23710000      -0.67230000
N        2.65790000      -1.80510000      -1.42630000
C        1.79570000      -1.24790000       0.79630000
C        0.75580000      -0.53660000       1.22210000
C       -1.36090000      -0.52350000      -0.04010000
N       -2.44140000      -0.93100000      -0.06120000
H        0.99640000       1.93930000       0.02110000
H       -0.49650000       1.88910000      -0.95090000
H       -0.59570000       1.94870000       0.82220000
H        2.44050000      -1.63890000      -2.40980000
H        2.53800000      -1.77060000       1.38070000
H        0.43510000      -0.34530000       2.23640000
