17
Properties=species:S:1:pos:R:3 gdb_44967=T pbc="F F F"
O       -0.01280000       0.00540000      -0.26870000
C        0.01970000       1.18050000      -0.06170000
O       -1.10840000       1.93400000       0.12590000
C       -0.71100000       3.29260000       0.42100000
C        0.59700000       3.45300000      -0.36340000
C        1.22890000       2.11880000       0.05350000
C        1.61180000       2.21190000       1.54510000
O        0.46400000       2.39590000       2.36240000
C       -0.42980000       3.40700000       1.92520000
H       -1.52370000       3.95350000       0.11520000
H        0.40950000       3.50680000      -1.43900000
H        1.17550000       4.32850000      -0.05750000
H        2.06540000       1.76850000      -0.55090000
H        2.07320000       1.28380000       1.89120000
H        2.33240000       3.03460000       1.68290000
H       -0.03640000       4.41470000       2.13990000
H       -1.34590000       3.26220000       2.50310000
