23
Properties=species:S:1:pos:R:3 gdb_78806=T pbc="F F F"
C        0.03130000       1.60250000       0.08650000
C        0.10810000       0.08030000       0.03820000
C        1.14100000      -0.63770000      -0.82830000
C        2.41170000      -0.82230000       0.01260000
C        1.25220000      -1.77930000       0.15040000
C        0.69270000      -0.75390000       1.23160000
C       -0.17200000      -1.07610000       2.42280000
C        2.15850000      -0.22610000       1.39810000
C        2.95440000      -0.91490000       2.50210000
H        1.01250000       2.06380000       0.22750000
H       -0.38170000       1.99420000      -0.84990000
H       -0.62260000       1.94180000       0.89840000
H       -0.88460000      -0.32680000      -0.19270000
H        1.18160000      -0.69300000      -1.90960000
H        3.36880000      -1.01280000      -0.45850000
H        1.16750000      -2.84860000       0.02090000
H        0.33260000      -1.74830000       3.12450000
H       -0.43720000      -0.16420000       2.97210000
H       -1.10590000      -1.55810000       2.11300000
H        2.26170000       0.86120000       1.50320000
H        2.86830000      -2.00500000       2.43370000
H        4.01790000      -0.66130000       2.43080000
H        2.60860000      -0.60780000       3.49500000
