17
Properties=species:S:1:pos:R:3 gdb_14767=T pbc="F F F"
O       -0.05380000       1.44400000      -0.11890000
C        0.00260000       0.03550000      -0.02390000
C       -1.38740000      -0.57610000       0.04360000
O       -2.05310000      -0.21510000      -1.15830000
C       -3.40490000      -0.60230000      -1.19720000
C       -3.96440000      -0.13410000      -2.54650000
C       -5.37010000      -0.49030000      -2.70890000
N       -6.48270000      -0.78110000      -2.81960000
H       -0.65090000       1.63680000      -0.85080000
H        0.54720000      -0.40710000      -0.87310000
H        0.55320000      -0.20600000       0.89090000
H       -1.33090000      -1.67190000       0.14270000
H       -1.93360000      -0.17630000       0.91190000
H       -3.50620000      -1.69450000      -1.10570000
H       -3.97290000      -0.14640000      -0.37180000
H       -3.85350000       0.95220000      -2.62970000
H       -3.37960000      -0.58200000      -3.35660000
