21
Properties=species:S:1:pos:R:3 gdb_83633=T pbc="F F F"
C        0.35320000       1.55400000       0.06020000
C        0.08840000       0.05760000       0.02740000
O       -1.29860000      -0.21280000      -0.14650000
C        0.98940000      -0.79240000      -0.95440000
O        1.98310000      -0.14610000      -1.72060000
C        1.54750000      -1.59450000       0.23670000
C        2.76220000      -0.94500000       0.95960000
C        1.80320000      -0.31620000       2.01500000
C        0.58210000      -0.82520000       1.21220000
H        1.41880000       1.78020000       0.13580000
H       -0.00780000       2.02160000      -0.86590000
H       -0.17360000       2.01970000       0.89860000
H       -1.60030000       0.26550000      -0.92720000
H        0.33210000      -1.41080000      -1.58180000
H        1.56170000       0.29010000      -2.46740000
H        1.56410000      -2.67930000       0.13250000
H        3.47280000      -1.66510000       1.37070000
H        3.31410000      -0.23630000       0.33970000
H        1.87790000      -0.80800000       2.98840000
H        1.87610000       0.76190000       2.18030000
H       -0.23540000      -1.29910000       1.75460000
