19
Properties=species:S:1:pos:R:3 gdb_120810=T pbc="F F F"
O        0.04220000       1.38300000       0.29650000
C       -0.03880000      -0.02980000       0.38890000
C       -1.29830000      -0.46850000      -0.35160000
C       -1.45770000      -1.97110000      -0.34640000
N       -1.98160000      -2.59330000       0.88360000
C       -2.75970000      -2.69290000      -0.35400000
C       -4.10930000      -1.98880000      -0.36910000
C       -5.17450000      -2.85310000       0.14050000
N       -6.00500000      -3.55390000       0.53320000
H        0.79760000       1.67700000       0.81360000
H        0.84590000      -0.51110000      -0.06150000
H       -0.10100000      -0.36660000       1.43460000
H       -2.15660000       0.01630000       0.12180000
H       -1.24590000      -0.10410000      -1.38470000
H       -0.64950000      -2.50030000      -0.85270000
H       -1.51190000      -3.46930000       1.09180000
H       -2.77080000      -3.65260000      -0.86700000
H       -4.06930000      -1.08590000       0.24530000
H       -4.36790000      -1.68390000      -1.39010000
