20
Properties=species:S:1:pos:R:3 gdb_78711=T pbc="F F F"
C       -0.04460000       1.54570000      -0.02210000
N        0.02990000       0.09800000       0.11590000
C       -0.94870000      -0.58120000       0.91520000
C        0.04090000      -1.55980000       1.45050000
C        1.14170000      -0.59010000       0.91480000
C        1.50310000       0.26710000       2.10020000
C        0.45240000       0.29010000       2.93640000
C       -0.59560000      -0.65170000       2.47590000
C       -1.67820000      -1.16090000       3.39380000
H        0.83000000       1.90630000      -0.57380000
H       -0.93560000       1.78240000      -0.61460000
H       -0.11050000       2.09260000       0.92990000
H       -1.98100000      -0.68640000       0.59650000
H        0.04570000      -2.64280000       1.46200000
H        1.94710000      -0.95750000       0.27870000
H        2.36970000       0.91550000       2.13880000
H        0.33040000       0.93780000       3.79750000
H       -2.27710000      -0.33870000       3.80090000
H       -2.36110000      -1.83360000       2.86370000
H       -1.25860000      -1.71850000       4.23950000
