18
Properties=species:S:1:pos:R:3 gdb_34929=T pbc="F F F"
C       -0.11040000      -1.09550000      -0.01380000
C       -0.02360000       0.10250000       0.03470000
C        0.04140000       1.53450000       0.10900000
C        0.64390000       2.19430000       1.30280000
N        1.40440000       2.12940000      -0.00140000
C        1.18040000       3.61640000      -0.15700000
C        0.48430000       3.69000000       1.20890000
C       -0.64190000       4.55640000       1.69170000
C        0.73850000       4.68600000       2.29750000
H       -0.17630000      -2.15390000      -0.06580000
H       -0.77100000       2.05780000      -0.39390000
H        0.95000000       1.62400000       2.17430000
H        2.14440000       4.12930000      -0.19520000
H        0.59210000       3.88030000      -1.04270000
H       -0.98730000       5.35050000       1.03740000
H       -1.42360000       4.09730000       2.28830000
H        0.89030000       4.31230000       3.30520000
H        1.32640000       5.56580000       2.05510000
