15
Properties=species:S:1:pos:R:3 gdb_57736=T pbc="F F F"
C       -2.15200000       0.64010000      -0.31610000
C       -1.07030000      -0.37340000      -0.18350000
N       -0.86140000      -0.96430000       1.01490000
N       -0.28940000      -0.65900000      -1.20280000
H        0.35680000      -1.43690000      -1.09360000
C       -0.19680000       0.07340000      -2.41920000
C       -0.01820000      -0.67860000      -3.58480000
N        0.13890000      -1.35500000      -4.52070000
C       -0.12280000       1.46530000      -2.34060000
N       -0.09950000       2.62190000      -2.18500000
H       -1.74840000       1.65930000      -0.29790000
H       -2.63040000       0.51860000      -1.29270000
H       -2.88590000       0.52740000       0.48520000
H       -1.57920000      -0.90830000       1.71650000
H       -0.17880000      -1.69800000       1.12230000
