18
Properties=species:S:1:pos:R:3 gdb_99222=T pbc="F F F"
C       -0.52200000       1.09540000      -0.19490000
C        0.54200000       0.01150000      -0.04160000
C        0.92870000      -0.62160000      -1.35780000
O        0.39350000      -0.43680000      -2.42090000
O        1.99310000      -1.44900000      -1.19580000
C        2.34360000      -2.20550000      -2.34080000
C        1.33730000      -3.34430000      -2.57310000
N        1.51350000      -3.99570000      -3.76180000
O        0.51090000      -3.66300000      -1.74820000
H       -0.16090000       1.91700000      -0.81950000
H       -1.41980000       0.69300000      -0.66970000
H       -0.79690000       1.50150000       0.78230000
H        1.45210000       0.39420000       0.43360000
H        0.19260000      -0.80210000       0.60600000
H        2.40140000      -1.56400000      -3.22570000
H        3.33030000      -2.62810000      -2.13280000
H        2.02650000      -3.56740000      -4.51440000
H        0.81990000      -4.68350000      -4.01080000
