18
Properties=species:S:1:pos:R:3 gdb_57935=T pbc="F F F"
C        0.02120000       1.54700000       0.65130000
C       -0.13330000       0.19420000      -0.02740000
O        0.66610000      -0.82190000       0.59330000
C       -1.60080000      -0.24580000      -0.13500000
N       -2.53200000       0.61280000      -0.19210000
N       -1.70850000      -1.64190000      -0.20660000
C       -2.88270000      -2.36360000      -0.34570000
N       -2.68560000      -3.73280000      -0.34210000
O       -3.98810000      -1.86080000      -0.42390000
H        1.06950000       1.85630000       0.63630000
H       -0.59320000       2.29220000       0.14510000
H       -0.32190000       1.49690000       1.69130000
H        0.25750000       0.25140000      -1.05160000
H        0.54780000      -0.73900000       1.54680000
H       -3.43470000       0.14730000      -0.30240000
H       -0.84180000      -2.12380000      -0.00890000
H       -1.80770000      -4.10180000      -0.67320000
H       -3.50080000      -4.25190000      -0.62970000
