15
Properties=species:S:1:pos:R:3 gdb_47180=T pbc="F F F"
N       -0.07360000       1.18610000      -0.64840000
C        0.06660000       0.10990000       0.00580000
N       -1.07780000      -0.52650000       0.50180000
C       -1.42540000      -1.87550000       0.62230000
O       -2.60070000      -2.18420000       0.63250000
C       -0.37130000      -2.89710000       0.81160000
C        0.87650000      -2.66300000       1.21650000
C        1.43210000      -1.28180000       1.41720000
O        1.27000000      -0.45400000       0.25530000
H        0.83920000       1.58410000      -0.86140000
H       -1.90040000       0.04500000       0.34900000
H       -0.74250000      -3.90740000       0.68240000
H        1.54220000      -3.49910000       1.41020000
H        0.97130000      -0.79270000       2.28480000
H        2.51030000      -1.31640000       1.58060000
