18
Properties=species:S:1:pos:R:3 gdb_56582=T pbc="F F F"
C       -0.00980000       1.59290000      -0.01040000
C        0.04220000       0.05310000       0.00550000
C        0.65430000      -0.45650000      -1.22550000
N        1.12640000      -0.86050000      -2.19970000
C        0.79360000      -0.52270000       1.24480000
O        2.10610000      -0.02660000       1.34260000
C        0.01900000      -0.24610000       2.52760000
C        0.68190000      -0.29630000       3.83330000
O        0.39370000       0.96320000       3.20010000
H        1.00050000       2.00520000      -0.05750000
H       -0.56290000       1.94840000      -0.88230000
H       -0.49940000       1.96830000       0.89150000
H       -0.98240000      -0.34160000       0.03450000
H        0.87060000      -1.60860000       1.11230000
H        2.04390000       0.80300000       1.83800000
H       -1.05580000      -0.42340000       2.48440000
H        0.09580000      -0.50450000       4.72550000
H        1.73700000      -0.55310000       3.87960000
