16
Properties=species:S:1:pos:R:3 gdb_72684=T pbc="F F F"
O        0.15090000       1.40250000      -0.09000000
C        0.04610000       0.03000000      -0.01820000
C        0.64870000      -0.86770000      -1.12810000
C       -0.65020000      -1.73200000      -1.16420000
C       -1.28540000      -0.84810000      -0.05910000
O       -1.01270000      -1.34340000       1.26150000
C        0.16840000      -0.51410000       1.40980000
C       -2.62330000      -0.32900000      -0.23910000
N       -3.67150000       0.12310000      -0.42530000
H        0.07990000       1.68400000      -1.00870000
H        0.80840000      -0.31360000      -2.05810000
H        1.58000000      -1.37710000      -0.87010000
H       -1.17870000      -1.69040000      -2.11820000
H       -0.54960000      -2.77140000      -0.84990000
H        1.06190000      -1.10240000       1.64440000
H        0.01880000       0.26310000       2.16680000
