16
Properties=species:S:1:pos:R:3 gdb_8347=T pbc="F F F"
N       -0.12670000       1.28030000       0.00830000
C       -0.05120000       0.02170000      -0.01090000
O       -1.18120000      -0.71990000       0.02340000
C       -1.02710000      -2.11100000      -0.00360000
C       -0.33650000      -3.06330000       1.00110000
N       -0.95290000      -4.01610000      -0.03460000
C       -2.19200000      -3.09880000       0.03640000
C       -0.43420000      -3.03300000      -1.09530000
H        0.80710000       1.68480000      -0.02220000
H        0.86690000      -0.57760000      -0.05380000
H        0.75530000      -3.09910000       1.02590000
H       -0.77090000      -3.16050000       1.99840000
H       -2.75340000      -3.19570000       0.96790000
H       -2.83760000      -3.16950000      -0.84130000
H       -0.95960000      -3.10190000      -2.05020000
H        0.65040000      -3.06620000      -1.22250000
