22
Properties=species:S:1:pos:R:3 gdb_89728=T pbc="F F F"
C       -0.09210000       1.50050000       0.00210000
C       -0.02430000      -0.03000000      -0.00930000
C       -1.39680000      -0.64130000      -0.27500000
C        1.14180000      -0.56880000      -0.90120000
O        1.55090000       0.32260000      -1.91270000
C        2.03550000      -0.73920000       0.36120000
C        0.76780000      -0.58450000       1.20370000
C        0.59690000      -0.29160000       2.63970000
N        0.32150000      -1.64550000       2.10780000
H        0.88140000       1.94830000       0.21680000
H       -0.42240000       1.88150000      -0.96860000
H       -0.79930000       1.84320000       0.76520000
H       -1.78820000      -0.30200000      -1.24030000
H       -1.35530000      -1.73540000      -0.29780000
H       -2.12340000      -0.34530000       0.49190000
H        0.87420000      -1.54790000      -1.32400000
H        2.29530000      -0.07090000      -2.37850000
H        2.57750000      -1.68050000       0.47470000
H        2.72570000       0.10230000       0.47500000
H        1.46350000      -0.22420000       3.29290000
H       -0.24380000       0.32860000       2.94280000
H       -0.68430000      -1.77900000       2.02460000
