17
Properties=species:S:1:pos:R:3 gdb_72176=T pbc="F F F"
O       -0.06960000       1.40480000       0.02620000
C       -0.01080000       0.02110000      -0.05090000
C        0.24840000      -0.81170000      -1.33500000
C       -0.35530000      -1.92430000      -0.45360000
O        0.65080000      -2.10230000       0.56430000
C        0.72480000      -0.76050000       1.08750000
C       -0.27890000      -0.70010000       2.23400000
O       -1.53430000      -0.94860000       1.57180000
C       -1.27970000      -0.82780000       0.19560000
H        0.82100000       1.75950000      -0.07330000
H       -0.40000000      -0.49580000      -2.15520000
H        1.27470000      -0.96470000      -1.67290000
H       -0.70000000      -2.88590000      -0.82530000
H        1.75430000      -0.48090000       1.32170000
H       -0.09800000      -1.48470000       2.97370000
H       -0.29850000       0.28150000       2.72800000
H       -2.18340000      -0.56830000      -0.35370000
