21
Properties=species:S:1:pos:R:3 gdb_57955=T pbc="F F F"
C        0.05120000       1.68470000      -0.12910000
C       -0.03440000       0.17490000       0.11830000
C        0.60790000      -0.62280000      -1.03640000
C        0.67680000      -0.20900000       1.41840000
O        1.69750000       0.33770000       1.77280000
C        0.05370000      -1.33830000       2.22930000
C        0.90720000      -1.77930000       3.39190000
C        0.68920000      -1.27830000       4.75110000
O        0.25880000      -2.58970000       4.37480000
H        1.09550000       2.00640000      -0.13720000
H       -0.40460000       1.94370000      -1.08950000
H       -0.46450000       2.24760000       0.65500000
H       -1.08560000      -0.12940000       0.19860000
H        1.66500000      -0.35860000      -1.13810000
H        0.54150000      -1.70370000      -0.87540000
H        0.10450000      -0.39360000      -1.98030000
H       -0.93050000      -1.00710000       2.58680000
H       -0.15270000      -2.18500000       1.55990000
H        1.91280000      -2.10690000       3.13070000
H        1.52000000      -1.23970000       5.45340000
H       -0.10880000      -0.56040000       4.93760000
