19
Properties=species:S:1:pos:R:3 gdb_73703=T pbc="F F F"
C        0.01890000       1.52440000      -0.11040000
C       -0.01680000       0.01530000      -0.01270000
O        0.31170000      -0.51280000      -1.27530000
C       -0.16560000      -1.83070000      -1.50400000
C        0.07990000      -2.73360000      -0.29530000
C       -0.23690000      -1.93430000       0.96390000
C        0.60900000      -0.66690000       1.25040000
O       -0.50810000      -0.12940000       2.05210000
C       -1.14800000      -0.67380000       0.84320000
H        0.99910000       1.84740000      -0.47440000
H       -0.73130000       1.87250000      -0.82680000
H       -0.17250000       1.97320000       0.86400000
H       -1.24670000      -1.79510000      -1.71400000
H        0.33770000      -2.19050000      -2.40520000
H       -0.55290000      -3.62500000      -0.36690000
H        1.12080000      -3.07770000      -0.26330000
H       -0.43480000      -2.52710000       1.85870000
H        1.61610000      -0.58650000       1.66300000
H       -2.23470000      -0.59440000       0.77920000
