20
Properties=species:S:1:pos:R:3 gdb_31770=T pbc="F F F"
C        0.06740000       1.47640000       0.25270000
C       -0.02450000      -0.02260000      -0.09190000
C       -1.41280000      -0.57840000      -0.10000000
C       -2.23130000      -0.89090000      -1.15680000
C       -3.47890000      -1.36280000      -0.64600000
C       -3.36570000      -1.32060000       0.72060000
O       -4.21990000      -1.64660000       1.73010000
N       -2.12610000      -0.85340000       1.06840000
C       -1.67070000      -0.68490000       2.43280000
H        1.10420000       1.82590000       0.20370000
H       -0.52880000       2.06800000      -0.44830000
H       -0.30570000       1.68370000       1.26070000
H        0.39390000      -0.18390000      -1.09110000
H        0.62040000      -0.58950000       0.59420000
H       -1.96270000      -0.79470000      -2.19840000
H       -4.33970000      -1.69230000      -1.20710000
H       -5.00450000      -2.04010000       1.33770000
H       -0.61940000      -0.97050000       2.51680000
H       -1.77960000       0.35020000       2.77750000
H       -2.26180000      -1.32870000       3.08480000
