15
Properties=species:S:1:pos:R:3 gdb_25478=T pbc="F F F"
N       -1.98500000      -2.87240000      -0.78080000
C       -1.05080000      -2.03120000      -0.57990000
N       -1.25650000      -0.69260000      -0.33540000
C       -2.45130000       0.02240000      -0.24940000
C       -2.39380000       1.39550000       0.01920000
N       -3.47280000       2.16070000       0.11930000
C       -4.64480000       1.54300000      -0.05260000
N       -4.82650000       0.25060000      -0.31080000
C       -3.73790000      -0.51510000      -0.41060000
H       -1.59710000      -3.79880000      -0.93950000
H        0.02080000      -2.26410000      -0.57710000
H       -0.42080000      -0.14740000      -0.19330000
H       -1.42830000       1.88520000       0.15710000
H       -5.53640000       2.15900000       0.02690000
H       -3.86820000      -1.56840000      -0.62020000
