21
Properties=species:S:1:pos:R:3 gdb_41629=T pbc="F F F"
C        0.47140000       1.62280000      -0.40230000
C        1.45220000       1.53100000       0.79840000
C        1.31760000      -0.01810000       0.77000000
C        0.04330000       0.14850000      -0.12960000
C        0.10880000      -0.88610000      -1.25850000
C        1.57940000      -1.28010000      -1.36970000
O        2.37400000      -0.36510000      -2.16780000
C        3.26270000      -0.11540000      -1.05900000
C        2.32440000      -0.84180000      -0.07260000
H       -0.31190000       2.38260000      -0.34400000
H        0.98570000       1.72430000      -1.36080000
H        2.44870000       1.96420000       0.68110000
H        1.01490000       1.94120000       1.71300000
H        1.17640000      -0.49090000       1.74490000
H       -0.89620000       0.09930000       0.42620000
H       -0.47990000      -1.77410000      -0.99640000
H       -0.26920000      -0.51240000      -2.21600000
H        1.72820000      -2.31300000      -1.70790000
H        4.22810000      -0.62130000      -1.19620000
H        3.44490000       0.95370000      -0.91030000
H        2.80270000      -1.62410000       0.51800000
