19
Properties=species:S:1:pos:R:3 gdb_55684=T pbc="F F F"
C       -0.34900000       1.41820000      -0.07930000
C        0.02640000      -0.03850000       0.07930000
O        0.19260000      -0.53560000       1.17660000
C        0.19910000      -0.84880000      -1.19890000
C        0.11440000      -2.36310000      -0.97930000
O        1.10100000      -2.82360000      -0.10040000
C       -1.33830000      -2.88280000      -0.77460000
O       -1.38790000      -3.35000000      -2.13890000
C        0.03650000      -3.17500000      -2.28690000
H        0.30540000       1.90840000      -0.80820000
H       -1.36980000       1.49150000      -0.47270000
H       -0.29300000       1.92910000       0.88240000
H       -0.53420000      -0.52330000      -1.94570000
H        1.18870000      -0.59620000      -1.60730000
H        1.01330000      -2.28270000       0.69950000
H       -1.38340000      -3.70560000      -0.05010000
H       -2.12890000      -2.15440000      -0.55920000
H        0.29750000      -2.66690000      -3.22250000
H        0.58570000      -4.12200000      -2.21160000
