23
Properties=species:S:1:pos:R:3 gdb_37352=T pbc="F F F"
C       -0.01020000       1.51400000       0.13280000
C        1.30490000       0.78520000       0.02230000
C        0.00370000       0.01000000       0.03030000
C       -0.08790000      -0.68770000      -1.34620000
C        1.41220000      -0.89220000      -1.67570000
C        1.94960000       0.52600000      -1.35870000
C        1.50290000       1.50650000      -2.47670000
C        0.28170000       0.98910000      -3.27930000
C       -0.74750000       0.16610000      -2.46280000
H       -0.25430000       1.93370000       1.10410000
H       -0.37330000       2.11500000      -0.69300000
H        1.96270000       0.78680000       0.88480000
H       -0.30310000      -0.56310000       0.89870000
H       -0.62790000      -1.63270000      -1.24500000
H        1.85280000      -1.62480000      -0.99140000
H        1.60680000      -1.22940000      -2.69990000
H        3.03850000       0.55140000      -1.26750000
H        1.29690000       2.48910000      -2.04090000
H        2.33010000       1.65880000      -3.17840000
H       -0.21930000       1.82500000      -3.77910000
H        0.65760000       0.34970000      -4.08510000
H       -1.28170000      -0.49260000      -3.15620000
H       -1.50940000       0.81740000      -2.02360000
