20
Properties=species:S:1:pos:R:3 gdb_19156=T pbc="F F F"
C        0.02930000       1.32340000       0.20230000
O       -0.14000000      -0.02360000      -0.16570000
C        0.61570000      -0.53200000      -1.23660000
C        0.53190000       0.09010000      -2.60730000
C        1.81710000       0.18590000      -1.79910000
C        0.66990000      -2.02970000      -1.14420000
C        0.80900000      -2.72250000       0.18730000
C       -0.48650000      -2.81720000      -0.58320000
H        1.03910000       1.52630000       0.58420000
H       -0.18080000       2.01990000      -0.62270000
H       -0.69100000       1.51570000       1.00130000
H        0.49520000      -0.56920000      -3.46780000
H       -0.04490000       1.00160000      -2.72220000
H        2.08370000       1.16300000      -1.41450000
H        2.67020000      -0.41610000      -2.09370000
H        1.19740000      -2.48090000      -1.97950000
H        1.44640000      -3.59800000       0.24580000
H        0.80950000      -2.09660000       1.07150000
H       -1.32940000      -2.25420000      -0.20170000
H       -0.74150000      -3.75820000      -1.05830000
