16
Properties=species:S:1:pos:R:3 gdb_13368=T pbc="F F F"
C       -0.19900000       1.35650000       0.08130000
C       -0.02950000      -0.08860000       0.06940000
C        0.11450000      -1.28400000       0.05510000
C        0.29460000      -2.74670000       0.03310000
O        0.77550000      -3.24080000       1.26600000
C       -0.37510000      -3.44450000       2.08190000
C       -1.54390000      -3.56980000       1.06880000
O       -0.92010000      -3.42740000      -0.20460000
H        0.44990000       1.83600000      -0.65950000
H       -1.23240000       1.63620000      -0.15060000
H        0.04870000       1.77670000       1.06220000
H        1.00340000      -3.04080000      -0.74690000
H       -0.21140000      -4.35110000       2.66980000
H       -0.52630000      -2.59880000       2.76380000
H       -2.03620000      -4.54510000       1.09230000
H       -2.29500000      -2.78620000       1.22660000
