16
Properties=species:S:1:pos:R:3 gdb_46299=T pbc="F F F"
N       -0.24760000       1.19190000      -0.17210000
C       -0.06020000      -0.02970000       0.02200000
O        1.07810000      -0.73570000       0.35270000
C        0.34440000      -1.99390000       0.45000000
C       -0.95790000      -1.28110000      -0.01220000
O       -2.01810000      -1.30800000       0.91500000
C       -3.25860000      -1.54920000       0.24650000
C       -2.88070000      -1.79840000      -1.18390000
C       -1.57020000      -1.64660000      -1.33170000
H        0.60910000       1.73230000      -0.03710000
H        0.76450000      -2.75080000      -0.21640000
H        0.30040000      -2.35230000       1.48060000
H       -3.76190000      -2.40690000       0.71510000
H       -3.91830000      -0.67610000       0.35740000
H       -3.59840000      -2.04770000      -1.95450000
H       -0.99140000      -1.73650000      -2.24090000
