22
Properties=species:S:1:pos:R:3 gdb_57566=T pbc="F F F"
C       -0.40590000       1.53020000       0.03590000
C        0.02230000       0.05640000      -0.03010000
C        1.09900000      -0.23400000       1.02540000
O       -1.11310000      -0.79320000       0.19650000
C        0.54190000      -0.33800000      -1.42340000
C       -0.48110000      -0.16230000      -2.55490000
N       -0.00400000      -0.69130000      -3.82540000
C        0.64870000       0.07130000      -4.73980000
O        0.86840000       1.26010000      -4.62940000
H        0.42130000       2.19800000      -0.22440000
H       -1.23830000       1.72960000      -0.64300000
H       -0.73130000       1.78590000       1.05130000
H        0.72950000       0.00690000       2.02930000
H        1.37320000      -1.29270000       1.00880000
H        2.00030000       0.36280000       0.85180000
H       -1.49520000      -0.55350000       1.04720000
H        1.43740000       0.24740000      -1.65680000
H        0.84440000      -1.39140000      -1.38150000
H       -1.41510000      -0.66320000      -2.28960000
H       -0.69200000       0.89550000      -2.72280000
H       -0.07620000      -1.68110000      -3.99840000
H        0.95580000      -0.52020000      -5.62610000
