21
Properties=species:S:1:pos:R:3 gdb_58742=T pbc="F F F"
C       -0.06590000       1.53490000       0.00100000
C       -0.04340000       0.00450000       0.01650000
O        0.53300000      -0.50230000       1.21380000
C       -1.42230000      -0.58360000      -0.14070000
C       -2.59600000      -0.26150000      -1.09670000
C       -3.11570000      -1.17300000       0.04900000
C       -4.51810000      -1.54270000       0.41560000
C       -1.85990000      -2.06760000      -0.11400000
O       -2.34340000      -0.33100000       1.01160000
H        0.93480000       1.91910000       0.21290000
H       -0.38920000       1.91710000      -0.97280000
H       -0.75650000       1.91100000       0.76230000
H        0.58890000      -0.36560000      -0.80020000
H       -0.14790000      -0.42140000       1.89420000
H       -2.95470000       0.76830000      -1.06730000
H       -2.56330000      -0.67620000      -2.10760000
H       -4.96660000      -2.15290000      -0.37460000
H       -4.53250000      -2.11720000       1.34670000
H       -5.13010000      -0.64570000       0.55030000
H       -1.75880000      -2.64740000      -1.03530000
H       -1.56220000      -2.62250000       0.77590000
