18
Properties=species:S:1:pos:R:3 gdb_49651=T pbc="F F F"
O        0.10220000       0.01030000      -0.44230000
C        0.07100000       1.19160000      -0.17030000
N        1.11910000       1.90430000       0.33240000
C        2.56980000       1.61520000       0.20650000
C        2.82470000       1.98010000      -1.27680000
C        2.44410000       3.46800000      -1.10010000
C        3.55210000       3.94650000      -0.12600000
C        2.84130000       3.03100000       0.88110000
C        1.48170000       3.31040000       0.18490000
H       -0.84800000       1.81030000      -0.24320000
H        2.93340000       0.67450000       0.61100000
H        3.86360000       1.85560000      -1.59320000
H        2.17600000       1.40600000      -1.94080000
H        2.15490000       4.04350000      -1.97750000
H        4.59110000       3.74660000      -0.40210000
H        3.44280000       4.99550000       0.16400000
H        2.97360000       3.05930000       1.96070000
H        0.77370000       4.09430000       0.44630000
