25
Properties=species:S:1:pos:R:3 gdb_93836=T pbc="F F F"
C       -0.23980000       1.57740000      -0.04380000
C        0.00620000       0.05980000      -0.01290000
C        0.74520000      -0.42890000      -1.27670000
C        2.22560000      -0.01780000      -1.29260000
C        2.95190000      -0.50970000      -0.03650000
O        4.29360000      -0.03920000       0.02810000
C        2.24240000      -0.02640000       1.22640000
C        0.75930000      -0.43740000       1.24940000
C        0.08590000      -0.02540000       2.56340000
H        0.68880000       2.15530000      -0.00960000
H       -0.76490000       1.85730000      -0.96350000
H       -0.85910000       1.90110000       0.79730000
H       -0.98150000      -0.42130000      -0.00570000
H        0.68140000      -1.52450000      -1.32200000
H        0.24120000      -0.05390000      -2.17500000
H        2.71630000      -0.42040000      -2.18900000
H        2.32790000       1.07300000      -1.34260000
H        2.94160000      -1.61470000      -0.03850000
H        4.73980000      -0.30750000      -0.78160000
H        2.75980000      -0.42850000       2.10470000
H        2.34200000       1.06510000       1.28180000
H        0.73010000      -1.53680000       1.20280000
H        0.15790000       1.05350000       2.73560000
H       -0.97600000      -0.29510000       2.56880000
H        0.56150000      -0.52330000       3.41500000
