21
Properties=species:S:1:pos:R:3 gdb_118160=T pbc="F F F"
C        0.02870000       1.32970000      -0.11090000
O        0.06210000      -0.07700000      -0.02860000
C        0.59280000      -0.55950000       1.19090000
C        0.68410000      -2.07710000       1.05800000
O        1.47240000      -2.41460000      -0.07180000
C        1.32160000      -2.73340000       2.26920000
C        0.45630000      -2.85320000       3.54400000
O        0.45420000      -4.29050000       3.46890000
C        1.28450000      -4.27690000       2.28610000
H        1.03490000       1.76630000      -0.01750000
H       -0.38290000       1.59040000      -1.08870000
H       -0.61050000       1.76550000       0.67190000
H        1.59750000      -0.13940000       1.36390000
H       -0.05110000      -0.27220000       2.03820000
H       -0.34180000      -2.46750000       0.93750000
H        1.16670000      -1.84170000      -0.78590000
H        2.31690000      -2.31280000       2.43280000
H        0.92000000      -2.48880000       4.46930000
H       -0.55800000      -2.43620000       3.47190000
H        0.78920000      -4.74010000       1.42490000
H        2.24650000      -4.77450000       2.45550000
