18
Properties=species:S:1:pos:R:3 gdb_49237=T pbc="F F F"
O        0.05210000      -0.02160000       0.53580000
C        0.17330000       1.18260000       0.57650000
C        1.29810000       1.92840000      -0.01320000
C        1.30210000       3.26440000       0.09680000
C        2.36090000       4.16830000      -0.45600000
C        3.60350000       3.43190000      -0.91320000
N        4.26380000       2.60540000       0.11150000
C        3.60560000       1.95000000      -1.03250000
C        2.36800000       1.13760000      -0.71790000
H       -0.58770000       1.82140000       1.08040000
H        0.47400000       3.74450000       0.61630000
H        1.93840000       4.73140000      -1.30200000
H        2.62810000       4.92430000       0.29510000
H        4.24110000       3.99020000      -1.59520000
H        5.27120000       2.61720000      -0.02060000
H        4.25110000       1.51800000      -1.79440000
H        2.62650000       0.26180000      -0.11130000
H        1.95460000       0.73190000      -1.65120000
