21
Properties=species:S:1:pos:R:3 gdb_84663=T pbc="F F F"
C       -0.91910000       1.27420000       0.11830000
C        0.00930000       0.03930000      -0.00870000
C        0.54300000      -0.02540000      -1.41650000
C        1.75780000      -0.26640000      -1.91030000
C        3.03740000      -0.56730000      -1.23510000
C        3.88450000       0.53740000      -0.62360000
C        3.27010000      -0.54500000       0.24990000
C        2.25710000      -0.21860000       1.27500000
C        0.94830000       0.01350000       1.16970000
H       -0.34530000       2.20050000       0.01440000
H       -1.69170000       1.26340000      -0.65660000
H       -1.41760000       1.28970000       1.09230000
H       -0.65260000      -0.83790000       0.10820000
H       -0.23680000       0.16770000      -2.15320000
H        1.84550000      -0.24520000      -2.99660000
H        3.61960000      -1.31960000      -1.76300000
H        4.95640000       0.53260000      -0.79150000
H        3.42890000       1.51940000      -0.56690000
H        3.98940000      -1.28420000       0.59620000
H        2.67270000      -0.16600000       2.28130000
H        0.43040000       0.23160000       2.10360000
