20
Properties=species:S:1:pos:R:3 gdb_101647=T pbc="F F F"
C        0.01690000       1.39030000       0.06850000
O       -0.09180000      -0.00700000      -0.09160000
C        0.66690000      -0.54750000      -1.16750000
C        2.14860000      -0.68610000      -0.81150000
C        0.03440000      -1.90360000      -1.48820000
C       -1.42860000      -1.75590000      -1.93990000
O       -1.57110000      -0.98770000      -3.12380000
C       -2.06390000      -3.07990000      -2.09250000
N       -2.53680000      -4.12370000      -2.24280000
H        1.02900000       1.70330000       0.36190000
H       -0.25900000       1.92550000      -0.85270000
H       -0.67620000       1.67580000       0.86350000
H        0.55800000       0.10590000      -2.04710000
H        2.59330000       0.28450000      -0.57550000
H        2.27300000      -1.34070000       0.05680000
H        2.70880000      -1.11080000      -1.65060000
H        0.61000000      -2.41060000      -2.27140000
H        0.07000000      -2.53750000      -0.59510000
H       -1.96610000      -1.20020000      -1.16620000
H       -1.17760000      -1.48110000      -3.85300000
