16
Properties=species:S:1:pos:R:3 gdb_85494=T pbc="F F F"
O        0.49230000       0.78850000      -0.87380000
C        0.10190000      -0.24580000      -0.01640000
C        0.33050000      -0.02500000       1.48780000
C       -0.71780000      -0.90720000       2.16720000
O       -0.77550000      -1.23740000       3.32750000
N       -1.61850000      -1.27480000       1.18870000
C       -1.42760000      -0.60700000      -0.08880000
C       -2.25190000       0.59520000      -0.25200000
C       -2.89050000       1.60670000      -0.38100000
H       -0.11100000       1.53100000      -0.73760000
H        0.65480000      -1.13130000      -0.34300000
H        1.33720000      -0.27030000       1.82720000
H        0.12870000       1.01840000       1.75840000
H       -2.49590000      -1.69800000       1.45190000
H       -1.61770000      -1.28970000      -0.92340000
H       -3.48160000       2.48280000      -0.49330000
