14
Properties=species:S:1:pos:R:3 gdb_19785=T pbc="F F F"
O        0.00530000       0.01340000       0.23710000
C       -0.01340000       1.19440000       0.06270000
N       -1.21380000       1.98530000      -0.07240000
C       -1.56680000       2.71770000       1.16800000
C       -0.80210000       3.38870000       0.08730000
C        0.71510000       3.40950000       0.06530000
C        1.52880000       2.76020000       1.12320000
N        1.16040000       2.01790000      -0.10670000
H       -2.62830000       2.91890000       1.27850000
H       -1.06710000       2.43890000       2.09000000
H       -1.30300000       4.10900000      -0.55150000
H        1.17720000       4.14310000      -0.58740000
H        2.58720000       2.99060000       1.20300000
H        1.06390000       2.46820000       2.05920000
