18
Properties=species:S:1:pos:R:3 gdb_61229=T pbc="F F F"
O       -0.54830000       1.19710000       0.14800000
C       -0.01000000      -0.10530000       0.04950000
C        0.83080000      -0.29680000      -1.23270000
C        0.06420000      -0.07710000      -2.45470000
N       -0.54420000       0.09230000      -3.42220000
C        0.81240000      -0.50830000       1.27380000
O        1.29280000      -1.82710000       1.19390000
C        1.74870000       0.46460000       1.92600000
C        0.47010000       0.04440000       2.62750000
H        0.15180000       1.83700000      -0.02100000
H       -0.88250000      -0.76880000      -0.00850000
H        1.68490000       0.39270000      -1.21490000
H        1.24640000      -1.30860000      -1.23290000
H        0.56820000      -2.42290000       1.41670000
H        2.68410000       0.05820000       2.29140000
H        1.80940000       1.47930000       1.54730000
H       -0.33370000       0.76790000       2.68770000
H        0.56540000      -0.63090000       3.47040000
