18
Properties=species:S:1:pos:R:3 gdb_15090=T pbc="F F F"
C       -0.30470000       1.31910000       0.01950000
O       -0.19310000      -0.09050000       0.02070000
C        0.65560000      -0.61630000       1.04240000
C       -0.15170000      -0.79740000       2.33400000
O       -1.31810000      -1.55950000       2.09160000
C        1.18490000      -1.93860000       0.53160000
C        2.47180000      -2.03190000      -0.16030000
O        2.34440000      -2.42460000       1.21030000
H        0.67380000       1.79640000      -0.13620000
H       -0.96460000       1.58700000      -0.80900000
H       -0.73570000       1.71020000       0.95190000
H        1.50760000       0.05570000       1.22460000
H        0.45270000      -1.33820000       3.06900000
H       -0.39680000       0.18770000       2.76320000
H       -1.70800000      -1.18910000       1.28950000
H        0.42210000      -2.69040000       0.33630000
H        2.64980000      -2.84360000      -0.86370000
H        3.05610000      -1.12920000      -0.33510000
