19
Properties=species:S:1:pos:R:3 gdb_73645=T pbc="F F F"
C       -0.08830000       1.48380000       0.02810000
C       -0.00200000      -0.02970000       0.00580000
N       -1.30310000      -0.67870000      -0.10780000
C       -1.15070000      -2.02370000       0.47200000
C       -0.10000000      -1.89580000       1.60580000
C        0.82470000      -0.80480000       1.09340000
O        1.74250000      -1.28030000       0.05110000
C        1.05220000      -0.61390000      -0.94120000
N        1.27260000      -0.52490000      -2.17090000
H        0.90370000       1.93300000       0.12110000
H       -0.53790000       1.84330000      -0.90130000
H       -0.70070000       1.82730000       0.86990000
H       -1.97920000      -0.14530000       0.43100000
H       -2.11490000      -2.40660000       0.81230000
H       -0.78220000      -2.70380000      -0.30400000
H       -0.57460000      -1.55160000       2.53270000
H        0.43110000      -2.82670000       1.82080000
H        1.37310000      -0.24490000       1.85240000
H        2.10330000      -1.05500000      -2.44180000
