19
Properties=species:S:1:pos:R:3 gdb_45878=T pbc="F F F"
O       -0.22750000       0.04060000       0.54860000
C       -0.05420000       1.15930000       0.12220000
C       -1.21600000       2.08280000      -0.22450000
C       -1.42900000       3.18050000       0.80190000
C       -0.67550000       3.50490000       1.85460000
C        0.61680000       2.84100000       2.30000000
C        1.64410000       2.70370000       1.18550000
C        2.39500000       1.41550000       0.95120000
C        1.29550000       1.80920000       0.00960000
H       -1.03950000       2.54530000      -1.20660000
H       -2.12630000       1.47900000      -0.30990000
H       -2.34090000       3.75140000       0.63790000
H       -1.02910000       4.32040000       2.48100000
H        1.05070000       3.40820000       3.12950000
H        0.39210000       1.84630000       2.70550000
H        2.15940000       3.62580000       0.93260000
H        3.41850000       1.47220000       0.59780000
H        2.18720000       0.57720000       1.60780000
H        1.54040000       2.18770000      -0.97870000
