18
Properties=species:S:1:pos:R:3 gdb_74569=T pbc="F F F"
C       -0.03320000       1.51640000       0.14600000
C       -0.04120000       0.02810000       0.04280000
C        0.04460000      -0.73320000      -1.05290000
C        0.06460000      -2.16680000      -0.67930000
C        1.22930000      -2.68900000       0.16530000
C        2.52980000      -1.98650000       0.24330000
O        2.72940000      -0.85800000       0.63420000
N       -0.04130000      -2.25820000       0.77620000
C       -0.11430000      -0.85980000       1.26840000
H        0.86680000       1.85650000       0.67230000
H       -0.05110000       1.99030000      -0.83860000
H       -0.89450000       1.88010000       0.72020000
H        0.10710000      -0.38200000      -2.07510000
H       -0.46460000      -2.90550000      -1.27720000
H        1.34350000      -3.77200000       0.17610000
H        3.37530000      -2.62300000      -0.10510000
H        0.69100000      -0.64760000       1.97640000
H       -1.06800000      -0.73960000       1.79980000
