18
Properties=species:S:1:pos:R:3 gdb_93647=T pbc="F F F"
O       -0.61680000       1.23460000       0.92860000
C       -0.08980000       0.14150000       0.18420000
C        0.83490000      -0.77110000       1.02780000
C        0.04440000      -2.07940000       1.30010000
C       -1.43640000      -1.72720000       1.02670000
C       -2.09990000      -1.13090000       2.18640000
N       -2.62820000      -0.68630000       3.11340000
C       -1.31800000      -0.73000000      -0.17060000
O       -2.46720000      -0.00250000      -0.47650000
H        0.09330000       1.84400000       1.14800000
H        0.40160000       0.50930000      -0.72540000
H        1.78190000      -0.97640000       0.52220000
H        1.06880000      -0.25700000       1.96410000
H        0.34360000      -2.85960000       0.59370000
H        0.20500000      -2.47190000       2.30530000
H       -2.01950000      -2.60470000       0.73350000
H       -1.07280000      -1.33820000      -1.04920000
H       -2.46710000       0.76530000       0.11170000
