21
Properties=species:S:1:pos:R:3 gdb_86354=T pbc="F F F"
C       -0.79120000       1.07050000      -1.20310000
C        0.09920000      -0.09630000      -0.82830000
O        1.45710000       0.06940000      -1.30430000
C        2.00610000      -0.37110000      -0.04270000
C        3.15080000       0.50350000       0.42970000
C        0.60480000      -0.30910000       0.62730000
C        0.36760000       0.81600000       1.64640000
C       -1.00300000       0.84190000       2.14570000
C       -2.13450000       0.83770000       2.55180000
H       -0.39120000       2.01900000      -0.83500000
H       -0.86200000       1.13790000      -2.29340000
H       -1.79770000       0.93410000      -0.79730000
H       -0.33050000      -1.02540000      -1.23190000
H        2.35660000      -1.41170000      -0.12390000
H        2.84850000       1.54920000       0.53070000
H        3.53820000       0.15200000       1.39220000
H        3.96710000       0.45950000      -0.29810000
H        0.28300000      -1.25340000       1.07130000
H        1.05440000       0.67840000       2.49160000
H        0.61710000       1.79060000       1.21210000
H       -3.13150000       0.84640000       2.91690000
