16
Properties=species:S:1:pos:R:3 gdb_55014=T pbc="F F F"
N        1.08650000       0.13820000       0.56990000
C        0.05310000       0.10000000      -0.30580000
O        0.01340000       0.70540000      -1.36300000
C       -1.10130000      -0.80970000       0.06530000
N       -0.93480000      -1.82510000       1.09750000
C       -1.88550000      -0.75420000       1.35860000
C       -1.54980000       0.18410000       2.49370000
N       -2.60010000       0.95270000       2.89840000
O       -0.45320000       0.24560000       3.01930000
H        1.79190000       0.83730000       0.39920000
H        0.93790000      -0.17830000       1.52050000
H       -1.69840000      -1.03740000      -0.81460000
H       -1.40550000      -2.69160000       0.85490000
H       -2.94810000      -0.96730000       1.24810000
H       -3.45840000       0.99670000       2.37670000
H       -2.41980000       1.67180000       3.58040000
