16
Properties=species:S:1:pos:R:3 gdb_15696=T pbc="F F F"
C       -0.06010000       1.44420000       0.06940000
O       -0.02380000       0.04710000      -0.18330000
C       -1.25220000      -0.60310000      -0.01520000
C       -1.21980000      -2.01270000      -0.61430000
O       -2.18990000      -2.75400000       0.12330000
C       -2.09740000      -2.35840000       1.48020000
C       -1.60530000      -0.91240000       1.45750000
O       -1.46980000      -0.17900000       2.40100000
H        0.94000000       1.82560000      -0.14770000
H       -0.78420000       1.94480000      -0.59180000
H       -0.31780000       1.66020000       1.11070000
H       -2.08270000      -0.02170000      -0.45240000
H       -1.50000000      -2.05580000      -1.66750000
H       -0.20730000      -2.42840000      -0.49440000
H       -3.07630000      -2.45540000       1.95850000
H       -1.37550000      -2.97160000       2.04560000
