21
Properties=species:S:1:pos:R:3 gdb_111805=T pbc="F F F"
C        0.15010000       1.59840000       0.12630000
C       -0.04300000       0.08270000      -0.00460000
C        0.60150000      -0.48590000      -1.26770000
C        0.52350000      -2.01730000      -1.50170000
C       -0.99050000      -2.19050000      -1.73680000
O       -1.35960000      -0.97690000      -2.42730000
C       -0.14290000      -0.26500000      -2.59550000
O        0.67560000      -0.91280000      -3.55520000
C        1.18420000      -2.09030000      -2.88830000
H        1.21300000       1.86350000       0.14410000
H       -0.31080000       2.13430000      -0.71000000
H       -0.30260000       1.97470000       1.04860000
H        0.39300000      -0.41400000       0.87170000
H       -1.11300000      -0.14740000       0.00450000
H        1.63550000      -0.13360000      -1.35200000
H        0.95590000      -2.66900000      -0.74250000
H       -1.21940000      -3.05770000      -2.36730000
H       -1.56510000      -2.27350000      -0.80710000
H       -0.36960000       0.74090000      -2.94410000
H        2.27970000      -2.04190000      -2.83690000
H        0.89720000      -2.98320000      -3.45580000
