16
Properties=species:S:1:pos:R:3 gdb_16015=T pbc="F F F"
C        0.03700000       1.49350000       0.02530000
O        1.22990000       0.71810000      -0.03000000
C       -0.03820000       0.02470000      -0.01030000
C       -0.38260000      -0.73770000       1.25530000
O       -0.10680000      -2.11950000       1.12150000
C       -0.86620000      -2.72500000       0.09450000
C       -0.81740000      -1.96030000      -1.20030000
C       -0.39960000      -0.69620000      -1.25200000
H       -0.14290000       2.01680000       0.96530000
H       -0.19920000       2.06680000      -0.87110000
H        0.22480000      -0.37140000       2.08640000
H       -1.44820000      -0.57980000       1.49770000
H       -0.44570000      -3.72770000      -0.04150000
H       -1.91750000      -2.86060000       0.41380000
H       -1.12960000      -2.48810000      -2.09740000
H       -0.31400000      -0.15720000      -2.19090000
