20
Properties=species:S:1:pos:R:3 gdb_84445=T pbc="F F F"
C       -0.19730000       1.55040000       0.01000000
C        0.03990000       0.03690000      -0.01640000
C        0.74750000      -0.43160000      -1.27880000
C        1.84940000      -1.16760000      -1.14270000
C        2.32770000      -1.47350000       0.26730000
O        3.44220000      -2.31830000       0.34230000
C        1.08560000      -1.86920000       1.09230000
N        0.75660000      -0.40110000       1.20970000
C        2.23960000      -0.14490000       1.06900000
H        0.74490000       2.10540000      -0.03200000
H       -0.80310000       1.86000000      -0.84760000
H       -0.71990000       1.82930000       0.92870000
H       -0.94690000      -0.44720000       0.02660000
H        0.33150000      -0.17120000      -2.24870000
H        2.40820000      -1.57200000      -1.98240000
H        4.12180000      -1.98400000      -0.25320000
H        0.32460000      -2.49020000       0.61350000
H        1.34150000      -2.26940000       2.07810000
H        2.71190000      -0.21010000       2.05390000
H        2.52430000       0.78400000       0.57010000
