21
Properties=species:S:1:pos:R:3 gdb_84730=T pbc="F F F"
C       -0.35410000       1.49600000       0.04640000
C       -0.01350000      -0.00820000      -0.00130000
C        0.73870000      -0.40290000      -1.25260000
C        1.98640000      -0.00680000      -1.56930000
C        2.91450000       0.69440000      -0.71680000
C        2.92290000       0.66190000       0.64050000
C        2.01960000      -0.07020000       1.49350000
C        0.75610000      -0.47030000       1.22700000
C        0.00790000      -1.36180000       2.18060000
H        0.55190000       2.10520000       0.04200000
H       -0.96010000       1.77590000      -0.82150000
H       -0.92180000       1.73180000       0.95300000
H       -0.96610000      -0.55010000      -0.00950000
H        0.20340000      -1.02640000      -1.96510000
H        2.35990000      -0.26520000      -2.55880000
H        3.73890000       1.20140000      -1.21240000
H        3.75680000       1.14580000       1.14450000
H        2.43050000      -0.35040000       2.46250000
H        0.60350000      -1.61270000       3.06210000
H       -0.92550000      -0.89040000       2.51630000
H       -0.28150000      -2.30060000       1.69050000
