20
Properties=species:S:1:pos:R:3 gdb_56545=T pbc="F F F"
C       -0.07880000       1.45960000       0.55040000
C       -0.12670000      -0.00170000       0.06610000
C       -1.50280000      -0.46710000      -0.11970000
C       -2.64060000      -0.82640000      -0.26510000
N        0.67510000      -0.20320000      -1.15290000
C        0.09960000       0.21240000      -2.42130000
C        1.88230000      -0.84780000      -1.01640000
C        2.68270000      -1.11390000      -2.28350000
O        2.30910000      -1.19060000       0.07550000
H        0.95860000       1.74330000       0.74450000
H       -0.50390000       2.14390000      -0.18930000
H       -0.65270000       1.56580000       1.47470000
H        0.36130000      -0.62460000       0.82110000
H       -3.64270000      -1.15870000      -0.38110000
H        0.87360000       0.30480000      -3.18110000
H       -0.66410000      -0.49070000      -2.77500000
H       -0.37510000       1.19220000      -2.31160000
H        3.01180000      -0.18200000      -2.75480000
H        3.56130000      -1.68890000      -1.99370000
H        2.10820000      -1.67800000      -3.02410000
