18
Properties=species:S:1:pos:R:3 gdb_15947=T pbc="F F F"
O       -0.06940000       1.42070000       0.16720000
C        0.00650000       0.00020000       0.17320000
C       -1.39410000      -0.52350000       0.00590000
C       -2.39490000      -0.37140000       1.18910000
C       -2.73310000      -1.89390000       1.10550000
C       -1.78460000      -2.02800000      -0.10710000
O       -2.44530000      -1.80190000      -1.36780000
C       -2.06030000      -0.40540000      -1.37740000
H        0.82000000       1.77220000       0.27000000
H        0.64370000      -0.36990000      -0.64690000
H        0.43590000      -0.37270000       1.11790000
H       -1.91120000      -0.07840000       2.12390000
H       -3.22330000       0.31680000       1.00560000
H       -2.40400000      -2.46070000       1.98100000
H       -3.76900000      -2.15740000       0.88200000
H       -1.08570000      -2.86940000      -0.14870000
H       -2.92340000       0.26670000      -1.45300000
H       -1.36500000      -0.18850000      -2.19920000
