15
Properties=species:S:1:pos:R:3 gdb_43149=T pbc="F F F"
O       -0.00090000       0.04540000       0.07720000
C       -0.01520000       1.23390000      -0.01740000
C       -1.17150000       2.25550000       0.00730000
C       -0.68800000       3.07400000       1.22680000
O        0.76510000       3.04770000       1.13750000
C        1.10950000       2.28820000      -0.03540000
C        0.68810000       3.11740000      -1.24740000
O       -0.05670000       2.36520000      -2.22030000
C       -0.78500000       3.08780000      -1.21780000
H       -2.18120000       1.85610000       0.06210000
H       -1.02820000       4.11570000       1.20840000
H       -0.99660000       2.61560000       2.17240000
H        2.13740000       1.94290000       0.04210000
H        1.27290000       3.95300000      -1.61600000
H       -1.40700000       3.90430000      -1.57050000
