16
Properties=species:S:1:pos:R:3 gdb_60779=T pbc="F F F"
C       -0.01860000       1.48060000      -0.09240000
C       -0.01920000      -0.05530000      -0.00530000
C        0.68660000      -0.60380000      -1.23920000
O        0.12070000      -0.90810000      -2.25320000
C        0.69220000      -0.54720000       1.29440000
C        0.04750000      -0.04780000       2.50830000
C       -0.49430000       0.37110000       3.49390000
C        0.76970000      -2.01850000       1.31730000
N        0.83650000      -3.17140000       1.30360000
H        1.00250000       1.87420000      -0.15440000
H       -0.56240000       1.80150000      -0.98390000
H       -0.49840000       1.91340000       0.78840000
H       -1.04660000      -0.42820000      -0.01440000
H        1.79860000      -0.65450000      -1.15790000
H        1.72780000      -0.17610000       1.26840000
H       -0.96690000       0.73380000       4.37380000
