21
Properties=species:S:1:pos:R:3 gdb_83612=T pbc="F F F"
C       -0.10520000       1.60470000      -0.01160000
C        0.00140000       0.08470000      -0.05560000
C        0.74700000      -0.53560000      -1.27640000
C        0.34750000      -1.99740000      -1.66630000
C        1.62700000      -2.55930000      -0.95900000
C        1.80000000      -1.19200000      -0.32210000
O        3.02900000      -0.59970000       0.06870000
C        2.37830000       0.06910000       1.18300000
C        1.02440000      -0.62300000       0.89460000
H        0.85570000       2.08970000      -0.21210000
H       -0.81190000       1.96030000      -0.76930000
H       -0.45910000       1.95300000       0.96530000
H       -1.00020000      -0.34260000       0.06990000
H        1.01920000       0.11940000      -2.10610000
H       -0.58910000      -2.32800000      -1.20940000
H        0.29360000      -2.19030000      -2.73890000
H        1.52600000      -3.42680000      -0.30030000
H        2.42580000      -2.75700000      -1.68100000
H        2.84310000      -0.21430000       2.13390000
H        2.40970000       1.15950000       1.08310000
H        0.62980000      -1.23950000       1.70350000
