18
Properties=species:S:1:pos:R:3 gdb_29788=T pbc="F F F"
C       -0.02250000       1.44630000      -0.01190000
N        0.01700000       0.00330000       0.00300000
C        0.06200000      -0.81750000      -1.12270000
C        0.06860000      -2.11820000      -0.68100000
O        0.09670000      -3.28220000      -1.39890000
C        0.04980000      -2.10750000       0.74500000
N        0.04070000      -3.19280000       1.67050000
C        0.02350000      -0.77830000       1.12500000
N       -0.08500000      -0.23230000       2.41450000
H        0.97790000       1.89290000      -0.09010000
H       -0.61960000       1.79080000      -0.86090000
H       -0.49100000       1.79520000       0.91120000
H        0.09000000      -0.39600000      -2.11430000
H        0.09460000      -3.06610000      -2.33600000
H        0.86460000      -3.77670000       1.55270000
H       -0.75440000      -3.80340000       1.50280000
H       -0.19910000      -1.00770000       3.06150000
H        0.74910000       0.27770000       2.69280000
