20
Properties=species:S:1:pos:R:3 gdb_100371=T pbc="F F F"
C       -0.03690000       1.55600000      -0.16720000
C        0.00790000       0.03890000       0.02940000
C        0.72530000      -0.45170000       1.32010000
C        0.02720000       0.07610000       2.59400000
C        0.72790000      -2.00730000       1.32040000
C        1.44740000      -2.63190000       2.50060000
O        0.96120000      -3.46740000       3.21810000
C        2.11850000       0.02860000       1.29720000
N        3.21060000       0.40740000       1.26920000
H        0.96880000       1.98720000      -0.16670000
H       -0.50170000       1.79330000      -1.12830000
H       -0.62160000       2.05510000       0.61070000
H       -1.01050000      -0.36640000       0.05740000
H        0.50540000      -0.42360000      -0.83040000
H       -1.01570000      -0.25540000       2.60030000
H        0.51000000      -0.30440000       3.49790000
H        0.04750000       1.16650000       2.63690000
H       -0.30250000      -2.37330000       1.31200000
H        1.22590000      -2.36030000       0.40740000
H        2.48730000      -2.27030000       2.65860000
