21
Properties=species:S:1:pos:R:3 gdb_96237=T pbc="F F F"
C        0.07330000       1.58160000      -0.06250000
C        0.04700000       0.04620000      -0.02460000
C        0.82970000      -0.53800000      -1.20740000
O        0.45770000      -1.87260000      -1.50740000
C        1.11460000      -2.87300000      -0.77060000
C        0.81540000      -2.94370000       0.70770000
C        0.54350000      -1.95720000       1.56310000
C        0.55170000      -0.46130000       1.33440000
O        1.88700000       0.04920000       1.49790000
H        1.09650000       1.95910000       0.01430000
H       -0.36370000       1.95440000      -0.99420000
H       -0.49930000       2.00440000       0.76940000
H       -0.98960000      -0.29570000      -0.13170000
H        0.60390000       0.03890000      -2.11050000
H        1.91040000      -0.46390000      -1.01850000
H        0.81190000      -3.81880000      -1.23360000
H        2.21070000      -2.79650000      -0.90360000
H        0.85840000      -3.95540000       1.11020000
H        0.36900000      -2.24170000       2.60050000
H       -0.09310000      -0.00900000       2.10540000
H        2.31660000      -0.46640000       2.18720000
