14
Properties=species:S:1:pos:R:3 gdb_15132=T pbc="F F F"
O       -0.26170000       0.07610000       0.36490000
C        0.36910000       0.74340000      -0.40750000
C        1.11650000       2.01960000      -0.00680000
C        1.04910000       3.04910000      -1.03170000
C        0.96930000       3.87120000      -1.90850000
C        0.85380000       4.85160000      -2.95370000
C        1.66550000       6.08560000      -2.95410000
O        1.97620000       5.01640000      -3.83660000
H        0.47080000       0.47210000      -1.48020000
H        0.72100000       2.36090000       0.95550000
H        2.16520000       1.73080000       0.16320000
H       -0.10990000       4.88270000      -3.46090000
H        1.26100000       6.98340000      -3.41970000
H        2.37380000       6.24880000      -2.14420000
