15
Properties=species:S:1:pos:R:3 gdb_1745=T pbc="F F F"
C        0.06390000       1.60380000      -0.32280000
C       -0.06250000       0.10390000      -0.17090000
C       -1.43890000      -0.41500000       0.22290000
C       -1.82110000       0.01620000       1.62700000
O       -2.85980000       0.54970000       1.92010000
C        0.87110000      -0.78970000      -0.87230000
O        1.02030000      -0.53420000       0.52690000
H        1.09520000       1.87930000      -0.55450000
H       -0.58680000       1.96740000      -1.12510000
H       -0.22860000       2.11670000       0.59970000
H       -2.21100000      -0.07490000      -0.47350000
H       -1.41700000      -1.51220000       0.21470000
H       -1.04870000      -0.20990000       2.39480000
H        0.56190000      -1.80080000      -1.13470000
H        1.64630000      -0.36410000      -1.50800000
