17
Properties=species:S:1:pos:R:3 gdb_34986=T pbc="F F F"
C       -0.18430000      -1.28250000      -0.19610000
C        0.01190000      -0.10160000      -0.07970000
C        0.08300000       1.32740000       0.02710000
C        0.47460000       2.08570000       1.28560000
C        1.29060000       1.40130000       2.38920000
C        2.66910000       1.13770000       1.79170000
O        2.67980000       0.20000000       0.71120000
C        2.68450000       1.59300000       0.38970000
C        1.34190000       2.19350000       0.04580000
H       -0.30270000      -2.33250000      -0.29570000
H       -0.72990000       1.81470000      -0.50840000
H       -0.18680000       2.89310000       1.58000000
H        1.38670000       2.07700000       3.24560000
H        0.82810000       0.47540000       2.74700000
H        3.54910000       1.11330000       2.43080000
H        3.57490000       1.95270000      -0.11870000
H        1.33980000       3.07730000      -0.58160000
