19
Properties=species:S:1:pos:R:3 gdb_30642=T pbc="F F F"
C       -0.01350000       1.57540000       0.00360000
C       -0.00380000       0.03630000      -0.01630000
C       -1.43190000      -0.53220000      -0.00540000
O       -2.06580000      -0.09850000       1.18870000
C        0.77120000      -0.51280000      -1.16910000
C        1.86480000      -1.31700000      -1.26880000
C        2.12790000      -1.48640000      -2.66850000
C        1.17320000      -0.77300000      -3.31620000
O        0.33910000      -0.17430000      -2.42270000
H        1.00230000       1.96940000       0.09860000
H       -0.44280000       1.96890000      -0.92310000
H       -0.61300000       1.93350000       0.84280000
H        0.48830000      -0.32560000       0.89410000
H       -1.96990000      -0.17990000      -0.89870000
H       -1.38450000      -1.63070000      -0.05570000
H       -2.98400000      -0.38170000       1.16230000
H        2.41900000      -1.73780000      -0.44410000
H        2.92080000      -2.05970000      -3.12270000
H        0.95240000      -0.59160000      -4.35510000
