21
Properties=species:S:1:pos:R:3 gdb_82225=T pbc="F F F"
C        0.00460000       1.56600000      -0.03560000
C        0.03980000       0.03380000       0.01540000
C        0.67240000      -0.56570000      -1.23910000
O        2.01520000      -0.17120000      -1.56520000
C        1.79810000      -1.49380000      -1.05900000
C        2.20370000      -1.77180000       0.38400000
C        2.28580000      -0.43770000       1.17240000
C        0.73430000      -0.51800000       1.27990000
C        0.89510000      -2.06470000       1.18170000
H        1.01520000       1.97840000      -0.10050000
H       -0.55320000       1.91770000      -0.91000000
H       -0.47810000       1.97530000       0.85800000
H       -0.99690000      -0.33290000       0.03410000
H        0.02540000      -0.65590000      -2.11160000
H        1.96980000      -2.28730000      -1.78520000
H        3.03640000      -2.47500000       0.45110000
H        2.75660000      -0.58980000       2.14690000
H        2.73640000       0.41730000       0.66920000
H        0.26350000      -0.11080000       2.17890000
H        0.10670000      -2.63620000       0.68080000
H        1.10440000      -2.51240000       2.15660000
