16
Properties=species:S:1:pos:R:3 gdb_22277=T pbc="F F F"
C       -0.32100000       1.40850000      -0.07830000
C       -0.03400000      -0.06020000       0.04680000
N        0.02790000      -0.73500000       1.12980000
O       -0.18590000       0.04350000       2.26620000
C        0.23110000      -0.82440000      -1.21920000
C        0.13110000      -2.35680000      -1.21360000
C       -1.04280000      -2.12490000      -2.16250000
O       -1.83040000      -2.76880000      -2.77410000
O       -0.92780000      -0.75220000      -2.13560000
H        0.60890000       1.96510000      -0.24840000
H       -0.97320000       1.58590000      -0.93760000
H       -0.78850000       1.79360000       0.82710000
H       -0.14110000      -0.60840000       2.97410000
H        1.10520000      -0.41790000      -1.73880000
H        0.96700000      -2.89930000      -1.65650000
H       -0.13880000      -2.79520000      -0.25380000
