15
Properties=species:S:1:pos:R:3 gdb_24987=T pbc="F F F"
O        0.00210000      -0.03060000      -0.02250000
C       -0.01440000       1.18080000      -0.02280000
N       -1.13060000       2.02970000      -0.00220000
C       -0.71170000       3.34950000       0.08690000
C        0.62620000       3.36780000       0.06810000
C        1.13110000       4.76610000      -0.04820000
O       -0.07300000       5.54470000       0.05450000
C       -1.25770000       4.73350000      -0.01470000
N        1.07830000       2.05990000      -0.03320000
H       -2.05860000       1.66030000       0.10690000
H        1.81190000       5.07860000       0.75540000
H        1.63530000       4.96300000      -1.00860000
H       -1.79380000       4.91610000      -0.96040000
H       -1.92400000       5.02760000       0.80790000
H        2.01870000       1.71600000       0.04970000
