19
Properties=species:S:1:pos:R:3 gdb_67028=T pbc="F F F"
C        0.02110000       1.56800000      -0.02700000
C        0.00000000       0.05650000       0.05580000
C        0.29580000      -0.75700000      -1.27550000
C       -0.88510000      -1.65650000      -0.95940000
C       -0.91970000      -2.04550000       0.57000000
C        0.30150000      -1.83640000       1.38760000
C        0.79760000      -0.61470000       1.14840000
C       -1.39540000      -0.70750000       0.07170000
O       -2.65020000      -0.15510000       0.18590000
H        1.03290000       1.93590000      -0.23170000
H       -0.63650000       1.92990000      -0.82350000
H       -0.31230000       2.02240000       0.91280000
H        0.07820000      -0.13970000      -2.15190000
H        1.29260000      -1.19970000      -1.36830000
H       -1.43680000      -2.27740000      -1.65460000
H       -1.65130000      -2.81100000       0.80270000
H        0.72220000      -2.58490000       2.04790000
H        1.70860000      -0.19620000       1.56090000
H       -2.81810000       0.02680000       1.11800000
