18
Properties=species:S:1:pos:R:3 gdb_11084=T pbc="F F F"
C       -0.31590000       1.48380000      -0.01530000
C        0.02430000       0.01950000       0.00080000
C        1.16100000      -0.54690000      -0.87020000
O        1.65470000      -1.35310000       0.22880000
C        0.65840000      -0.83320000       1.13910000
C        1.23140000      -0.38820000       2.45580000
C       -0.64660000      -1.64790000       1.06920000
O       -1.13980000      -0.83810000      -0.02740000
H        0.58510000       2.09780000       0.07750000
H       -0.81000000       1.74410000      -0.95830000
H       -0.99960000       1.73330000       0.80110000
H        0.82790000      -1.14760000      -1.72330000
H        1.91490000       0.18160000      -1.19630000
H        2.03290000       0.34050000       2.30490000
H        0.45980000       0.06040000       3.08900000
H        1.65440000      -1.24640000       2.99030000
H       -0.51500000      -2.70030000       0.79620000
H       -1.30200000      -1.56750000       1.94640000
