23
Properties=species:S:1:pos:R:3 gdb_102809=T pbc="F F F"
C       -0.09050000       1.59630000       0.24760000
C        0.04180000       0.07860000       0.09330000
C        0.79080000      -0.59510000       1.24620000
O        0.07310000      -0.30040000       2.46680000
C        0.67710000       0.42100000       3.42560000
O        0.14500000       0.70340000       4.45780000
C        0.91600000      -2.12610000       1.12720000
C        1.65960000      -2.53780000      -0.15280000
C        1.60650000      -2.72600000       2.36050000
H        0.89170000       2.07680000       0.32490000
H       -0.60060000       2.02830000      -0.61810000
H       -0.66620000       1.85800000       1.13910000
H       -0.95200000      -0.37810000       0.01120000
H        0.57090000      -0.14600000      -0.83790000
H        1.80010000      -0.16100000       1.32720000
H        1.70910000       0.71900000       3.15440000
H       -0.10610000      -2.52520000       1.07970000
H        2.65740000      -2.08410000      -0.19380000
H        1.79340000      -3.62340000      -0.17660000
H        1.12280000      -2.25420000      -1.06140000
H        1.06230000      -2.49980000       3.27980000
H        1.67170000      -3.81440000       2.26870000
H        2.62960000      -2.34350000       2.46480000
