19
Properties=species:S:1:pos:R:3 gdb_92247=T pbc="F F F"
C       -0.11800000       1.56040000      -0.04730000
C        0.07050000       0.06300000       0.05210000
O        1.17490000      -0.43990000      -0.76660000
C        1.63900000      -1.34390000       0.26980000
C        2.91400000      -0.84450000       0.99380000
C        2.00880000      -0.03200000       1.96450000
C        1.39440000      -0.78760000       3.17270000
O        0.15890000      -1.06810000       2.44840000
C        0.73510000      -0.56480000       1.26450000
H        0.79870000       2.08920000       0.22900000
H       -0.38380000       1.84500000      -1.06990000
H       -0.92690000       1.88290000       0.61670000
H       -0.85950000      -0.46400000      -0.21210000
H        1.53360000      -2.39560000      -0.01040000
H        3.51140000      -1.62900000       1.46900000
H        3.56100000      -0.23890000       0.35540000
H        2.21390000       1.02620000       2.12420000
H        1.91030000      -1.71040000       3.46400000
H        1.19480000      -0.18310000       4.06270000
