16
Properties=species:S:1:pos:R:3 gdb_27299=T pbc="F F F"
C       -0.01790000       1.52280000       0.05950000
C        0.00240000       0.02320000      -0.02330000
C       -0.02690000      -0.68640000      -1.18470000
C       -0.00650000      -2.14050000      -1.24140000
O       -0.03230000      -2.79380000      -2.27820000
C        0.04960000      -2.77620000       0.09340000
O        0.07020000      -4.13270000       0.08540000
C        0.07710000      -2.02580000       1.22310000
N        0.05390000      -0.64740000       1.16590000
H        0.87890000       1.90650000       0.56060000
H       -0.05930000       1.95780000      -0.93960000
H       -0.88910000       1.87920000       0.62210000
H       -0.06780000      -0.16350000      -2.13260000
H        0.10660000      -4.46190000       0.99020000
H        0.11820000      -2.45440000       2.21850000
H        0.07560000      -0.12660000       2.02620000
