15
Properties=species:S:1:pos:R:3 gdb_20223=T pbc="F F F"
C       -0.05460000       1.56640000      -0.03960000
C        1.18820000       2.06770000      -0.04970000
C        2.16910000       0.92210000       0.00030000
C        2.08670000       0.06250000       1.29460000
C        0.70840000      -0.49340000       1.30570000
C        0.03470000       0.06120000       0.01760000
C        1.41420000      -0.29480000      -0.59770000
N        1.79780000      -1.22230000       0.57990000
H       -0.97830000       2.13110000      -0.00610000
H        1.46200000       3.11550000      -0.02580000
H        3.18550000       1.10000000      -0.34830000
H        2.72690000       0.10110000       2.16800000
H        0.23290000      -0.90490000       2.18810000
H       -0.82540000      -0.51790000      -0.31580000
H        1.53900000      -0.62500000      -1.62830000
