19
Properties=species:S:1:pos:R:3 gdb_63117=T pbc="F F F"
C       -0.04340000       1.55800000       0.04610000
C        0.06960000       0.04920000       0.04350000
O       -1.09380000      -0.58310000      -0.42640000
C        1.32550000      -0.72370000      -0.25800000
C        2.57880000      -0.05180000       0.30420000
C        1.94150000      -0.06260000       1.72990000
C        0.68610000      -0.76050000       1.16910000
C       -0.01590000      -1.79520000       1.84570000
C       -0.57420000      -2.65960000       2.47050000
H        0.84010000       2.05170000       0.45490000
H       -0.18220000       1.92680000      -0.97800000
H       -0.91420000       1.86230000       0.63420000
H       -1.16310000      -0.40220000      -1.37040000
H        1.30110000      -1.51200000      -1.00150000
H        3.45920000      -0.69490000       0.24790000
H        2.83800000       0.92300000      -0.12070000
H        2.48250000      -0.71280000       2.41860000
H        1.77760000       0.90170000       2.21920000
H       -1.08330000      -3.42060000       3.00720000
