15
Properties=species:S:1:pos:R:3 gdb_26886=T pbc="F F F"
C       -0.00740000       1.57690000       0.02320000
C        0.00950000       0.07110000       0.00410000
C       -0.01680000      -0.65110000      -1.15210000
O       -0.06030000      -0.09080000      -2.36760000
O       -0.00220000      -1.98090000      -1.19890000
C        0.04420000      -2.82110000      -0.02610000
O        0.05250000      -4.00240000      -0.22430000
C        0.07250000      -2.07300000       1.19660000
C        0.05550000      -0.71040000       1.19160000
H        0.89860000       1.98050000       0.48980000
H       -0.07070000       1.98140000      -0.98800000
H       -0.86340000       1.95760000       0.59180000
H       -0.07380000      -0.80380000      -3.02020000
H        0.10730000      -2.65020000       2.11060000
H        0.07770000      -0.18240000       2.14170000
