14
Properties=species:S:1:pos:R:3 gdb_98152=T pbc="F F F"
O       -0.56380000       1.52630000      -0.41810000
C       -1.02700000       0.25590000      -0.76190000
C       -1.14730000      -0.64020000       0.45280000
O       -0.79950000      -0.27460000       1.54560000
C       -1.77420000      -2.06260000       0.27060000
C       -3.22110000      -1.93300000       0.11000000
C       -4.40640000      -1.78400000      -0.00370000
C       -1.15710000      -2.78520000      -0.84940000
N       -0.64570000      -3.33990000      -1.72380000
H       -0.36190000       1.49600000       0.52850000
H       -2.01250000       0.30830000      -1.24990000
H       -0.35420000      -0.24250000      -1.47960000
H       -1.54590000      -2.59880000       1.19910000
H       -5.45780000      -1.66710000      -0.10660000
