20
Properties=species:S:1:pos:R:3 gdb_94012=T pbc="F F F"
C       -0.09760000       1.57180000       0.00280000
C       -0.01470000       0.03850000       0.00170000
C        0.67510000      -0.49020000      -1.26920000
C        1.00480000      -1.97850000      -1.13960000
N        1.86490000      -2.20800000       0.01860000
C        2.85860000      -3.15450000       0.00010000
O        3.57800000      -3.43170000       0.93420000
C        1.59220000      -1.48140000       1.18450000
C        0.71270000      -0.47700000       1.22090000
H        0.90320000       2.01670000      -0.00630000
H       -0.64140000       1.93700000      -0.87470000
H       -0.61710000       1.93540000       0.89520000
H       -1.04720000      -0.34460000       0.01660000
H        0.04020000      -0.33280000      -2.14720000
H        1.60490000       0.06750000      -1.43490000
H        0.07530000      -2.55420000      -1.02650000
H        1.51830000      -2.35030000      -2.03080000
H        2.93160000      -3.64690000      -0.98890000
H        2.15820000      -1.82290000       2.04140000
H        0.53490000       0.01780000       2.17040000
