12
Properties=species:S:1:pos:R:3 gdb_25378=T pbc="F F F"
O        0.12250000      -0.08480000      -0.00200000
C        0.06320000       1.12120000       0.00830000
C        1.22050000       2.01210000       0.00250000
C        1.34020000       3.37950000       0.01210000
N        2.66390000       3.72530000      -0.00000000
C        3.29360000       2.58000000      -0.01610000
O        2.48010000       1.49830000      -0.01580000
C        4.74760000       2.30540000      -0.03460000
O        5.58590000       3.16820000      -0.03710000
H       -0.90110000       1.67070000       0.02350000
H        0.55470000       4.12000000       0.02680000
H        4.98700000       1.22350000      -0.04590000
