15
Properties=species:S:1:pos:R:3 gdb_43240=T pbc="F F F"
O       -0.05420000      -0.03100000       0.23720000
C       -0.06480000       1.14440000      -0.02840000
C       -1.24770000       2.08060000      -0.09470000
C       -0.66640000       3.29570000      -0.25490000
C       -0.01850000       4.23860000       0.70980000
C        1.23660000       4.36280000      -0.09810000
C        1.26010000       3.29050000       0.96050000
C        1.16340000       2.10210000      -0.06950000
C        0.66530000       3.23930000      -1.01430000
H       -2.12110000       1.85420000       0.50610000
H       -0.39050000       4.83250000       1.53470000
H        1.90000000       5.19270000      -0.29070000
H        1.74680000       3.30050000       1.92840000
H        2.12540000       1.61670000      -0.24660000
H        0.70660000       3.17720000      -2.09770000
