17
Properties=species:S:1:pos:R:3 gdb_82713=T pbc="F F F"
C        0.03270000       1.58840000       0.09270000
C        0.06250000       0.08080000      -0.01240000
C        0.76160000      -0.60630000      -1.21280000
O        2.07420000      -0.04190000      -1.46450000
C        2.67620000      -0.82190000      -0.38660000
C        1.35790000      -1.60780000      -0.20580000
N        0.97810000      -0.68820000       0.94960000
C        2.31790000      -0.13160000       0.93050000
N        2.82610000       0.65160000       1.77430000
H        0.99560000       2.02160000      -0.18530000
H       -0.73480000       1.99250000      -0.57560000
H       -0.20330000       1.89570000       1.11550000
H       -0.93940000      -0.34490000       0.11780000
H        0.22110000      -0.80490000      -2.14040000
H        3.67770000      -1.17750000      -0.63580000
H        1.21070000      -2.68000000      -0.11420000
H        3.79530000       0.86230000       1.52940000
