19
Properties=species:S:1:pos:R:3 gdb_69937=T pbc="F F F"
C       -0.04320000       1.53560000      -0.01600000
C        0.03530000       0.02800000      -0.01790000
C       -0.80700000      -0.79880000       0.93540000
C        0.68930000      -0.79510000       1.11760000
C        1.53170000      -1.84260000       0.43060000
O        1.17230000      -3.27900000       0.35590000
C        1.24640000      -3.25410000      -1.10280000
C        1.15390000      -1.74940000      -1.01710000
C        0.30770000      -0.75410000      -1.27760000
H        0.89270000       1.98400000      -0.36660000
H       -0.84710000       1.88840000      -0.67300000
H       -0.24720000       1.92180000       0.98750000
H       -1.37800000      -0.26140000       1.68640000
H       -1.27880000      -1.70360000       0.56810000
H        1.09010000      -0.28360000       1.98470000
H        2.59340000      -1.76270000       0.69660000
H        2.20300000      -3.66200000      -1.45600000
H        0.41700000      -3.78950000      -1.57580000
H       -0.29000000      -0.62490000      -2.17390000
