16
Properties=species:S:1:pos:R:3 gdb_53136=T pbc="F F F"
C       -0.04290000       1.46910000       0.00010000
C        0.00460000       0.01740000       0.07890000
C        0.03700000      -1.18540000       0.13970000
C        0.08810000      -2.61930000       0.18710000
C       -0.46840000      -3.42510000       1.29550000
C       -1.67730000      -2.75610000       1.94250000
C       -2.26160000      -2.75230000       0.51870000
O       -3.28650000      -2.42660000       0.01400000
N       -1.13740000      -3.47440000      -0.07860000
H        0.59670000       1.84090000      -0.80750000
H       -1.06320000       1.81570000      -0.19580000
H        0.29430000       1.93090000       0.93440000
H        0.94140000      -3.06050000      -0.32210000
H        0.04200000      -4.30140000       1.67670000
H       -2.24590000      -3.41470000       2.60370000
H       -1.52670000      -1.78730000       2.42200000
