17
Properties=species:S:1:pos:R:3 gdb_48023=T pbc="F F F"
O       -0.07110000      -0.08950000       0.50870000
C       -0.00420000       1.11300000       0.39170000
C        1.21730000       1.84800000       0.19610000
C        2.22260000       2.49890000       0.03320000
C        3.45420000       3.26020000      -0.15970000
C        4.11990000       2.97720000      -1.54230000
C        4.50230000       4.38380000      -2.02980000
C        3.41160000       5.23790000      -1.38390000
O        3.22180000       4.67060000      -0.09030000
H       -0.91150000       1.74990000       0.42860000
H        4.14050000       3.00960000       0.65950000
H        4.96890000       2.29880000      -1.44490000
H        3.39650000       2.51570000      -2.21870000
H        5.48350000       4.67660000      -1.64350000
H        4.52300000       4.46240000      -3.11930000
H        3.68660000       6.28650000      -1.24510000
H        2.47940000       5.19720000      -1.96900000
