18
Properties=species:S:1:pos:R:3 gdb_61270=T pbc="F F F"
O       -0.04500000       1.51710000      -0.01300000
C        0.04090000       0.10850000       0.05850000
C        0.65930000      -0.52580000      -1.20540000
C       -0.09490000      -0.22480000      -2.41790000
N       -0.69540000       0.00960000      -3.37660000
C        0.82220000      -0.32680000       1.29700000
C        0.12880000      -0.14090000       2.66140000
C        0.20850000      -1.67920000       2.74930000
O        0.84080000      -1.76230000       1.44800000
H        0.84280000       1.87540000      -0.12860000
H       -0.99280000      -0.24140000       0.15270000
H        1.69100000      -0.17120000      -1.33140000
H        0.70990000      -1.61030000      -1.06240000
H        1.84540000       0.07940000       1.23980000
H        0.70350000       0.40330000       3.41090000
H       -0.87560000       0.28100000       2.60350000
H        0.85840000      -2.07610000       3.53720000
H       -0.74650000      -2.21560000       2.77070000
