21
Properties=species:S:1:pos:R:3 gdb_52945=T pbc="F F F"
C       -0.04530000       1.47930000       0.05650000
C       -0.02750000       0.02450000       0.01750000
C       -0.00910000      -1.18200000      -0.00740000
C        0.01690000      -2.60350000      -0.06830000
C       -0.25350000      -3.48490000       1.13720000
C       -1.15750000      -3.62530000      -0.05000000
C       -2.63490000      -3.37260000       0.00970000
C       -0.44770000      -4.46260000      -1.12310000
C        0.73540000      -3.44410000      -1.14000000
H        0.97070000       1.89070000       0.05570000
H       -0.57300000       1.90170000      -0.80640000
H       -0.54550000       1.84570000       0.96030000
H        0.45660000      -4.26870000       1.39620000
H       -0.67850000      -2.96600000       1.99010000
H       -2.86360000      -2.54430000       0.68790000
H       -3.03580000      -3.11740000      -0.97770000
H       -3.17440000      -4.25760000       0.36950000
H       -0.21020000      -5.49450000      -0.84250000
H       -0.99000000      -4.47790000      -2.07190000
H        0.82210000      -2.92050000      -2.09350000
H        1.72220000      -3.82310000      -0.85480000
