20
Properties=species:S:1:pos:R:3 gdb_63381=T pbc="F F F"
C       -0.42190000       1.45550000       0.88830000
C        0.12900000       0.11310000       0.43650000
C       -0.68440000      -1.05960000       0.96840000
C        0.53080000       0.00310000      -1.05740000
C        1.96540000      -0.25520000      -0.52200000
C        3.06760000       0.70440000      -0.95400000
O        1.53740000      -0.02080000       0.83500000
C        2.40650000      -1.65390000      -0.69590000
N        2.74440000      -2.74950000      -0.84290000
H        0.19410000       2.27790000       0.51450000
H       -1.44550000       1.59330000       0.52370000
H       -0.43890000       1.51080000       1.98150000
H       -1.71780000      -1.00520000       0.60930000
H       -0.25530000      -2.01240000       0.64690000
H       -0.69940000      -1.04340000       2.06260000
H        0.07530000      -0.81110000      -1.62080000
H        0.44940000       0.93350000      -1.62190000
H        2.72230000       1.73380000      -0.83110000
H        3.95910000       0.55760000      -0.33840000
H        3.33590000       0.53790000      -2.00160000
