16
Properties=species:S:1:pos:R:3 gdb_14467=T pbc="F F F"
O       -0.07410000       1.36550000       0.07660000
C        0.04980000      -0.01400000       0.05270000
C        1.11810000      -0.78860000       0.82300000
C        0.63960000      -2.17940000       0.35380000
C       -0.85460000      -2.17580000       0.75980000
C       -1.19580000      -0.89090000       0.01670000
C       -0.22870000      -0.88060000      -1.15700000
O        0.58390000      -2.03720000      -1.07990000
H        0.66190000       1.74220000      -0.41890000
H        2.13410000      -0.56480000       0.48210000
H        1.05440000      -0.65570000       1.90620000
H        1.24320000      -3.04660000       0.61250000
H       -1.38690000      -3.04960000       0.37460000
H       -0.99470000      -2.10970000       1.84220000
H       -2.18590000      -0.46200000      -0.05040000
H       -0.45080000      -0.52760000      -2.15410000
