23
Properties=species:S:1:pos:R:3 gdb_107630=T pbc="F F F"
C        0.66260000      -0.40540000       1.38830000
C       -0.00530000      -0.15910000       0.02930000
C        0.85390000      -0.53300000      -1.15480000
O        0.13540000      -0.80040000      -2.37870000
C        0.87590000      -1.86980000      -1.76580000
C        2.22010000      -2.12120000      -2.41720000
C        2.81400000      -0.70190000      -2.56830000
C        2.19790000       0.14590000      -1.42520000
C        2.09180000       1.63530000      -1.76010000
H        0.95400000      -1.45480000       1.50280000
H        1.56160000       0.20560000       1.51720000
H       -0.02240000      -0.15750000       2.20450000
H       -0.93620000      -0.73140000      -0.04190000
H       -0.28980000       0.89770000      -0.05480000
H        0.27190000      -2.69390000      -1.39090000
H        2.82650000      -2.74590000      -1.74900000
H        2.13880000      -2.64860000      -3.37290000
H        3.90680000      -0.69680000      -2.54270000
H        2.50710000      -0.28000000      -3.52890000
H        2.81090000       0.02570000      -0.52110000
H        1.42220000       1.78600000      -2.61320000
H        1.70300000       2.21650000      -0.91730000
H        3.07140000       2.04890000      -2.02130000
