18
Properties=species:S:1:pos:R:3 gdb_99182=T pbc="F F F"
C        0.07860000       1.42160000      -0.09550000
O       -0.04830000       0.01190000       0.10840000
C        0.68360000      -0.47760000       1.13990000
O        1.39810000       0.18940000       1.85380000
N        0.48610000      -1.82460000       1.24030000
C        1.12480000      -2.63050000       2.23760000
C        0.26280000      -3.59490000       3.08790000
O        1.15140000      -4.69150000       2.79860000
C        1.85460000      -3.92430000       1.80210000
H        1.11480000       1.69160000      -0.31460000
H       -0.56200000       1.65480000      -0.94640000
H       -0.24820000       1.97410000       0.78920000
H       -0.13950000      -2.24970000       0.57460000
H        1.74490000      -1.96300000       2.83430000
H        0.18750000      -3.39040000       4.16120000
H       -0.74610000      -3.75860000       2.68060000
H        1.60790000      -4.24580000       0.77930000
H        2.94090000      -3.96030000       1.93720000
