21
Properties=species:S:1:pos:R:3 gdb_123119=T pbc="F F F"
C        0.93670000       0.62030000       0.17780000
O        0.41220000      -0.67950000       0.31460000
C       -0.98850000      -0.73310000       0.15790000
C       -1.45380000      -2.14760000       0.43440000
O       -1.39930000      -2.38270000       1.83090000
C       -1.39080000      -3.74990000       2.17260000
C       -0.01520000      -4.42570000       2.03770000
C        1.19560000      -3.54910000       2.27160000
O        0.05350000      -5.61080000       1.80790000
H        2.01890000       0.55120000       0.30950000
H        0.72590000       1.04180000      -0.81780000
H        0.52800000       1.30650000       0.93550000
H       -1.48900000      -0.04130000       0.85440000
H       -1.27590000      -0.44560000      -0.86750000
H       -2.48280000      -2.28240000       0.06520000
H       -0.80520000      -2.84630000      -0.11450000
H       -1.67670000      -3.80880000       3.23120000
H       -2.12170000      -4.33580000       1.59840000
H        2.10420000      -4.13800000       2.14090000
H        1.18950000      -2.68240000       1.60380000
H        1.15990000      -3.14550000       3.29110000
