14
Properties=species:S:1:pos:R:3 gdb_66411=T pbc="F F F"
O       -0.06590000       1.46550000       0.00040000
C        0.00380000       0.10280000      -0.05560000
C       -1.09040000      -0.92080000      -0.11280000
O       -0.35450000      -1.70930000      -1.07800000
C        0.64800000      -0.73580000      -1.12620000
N        1.65570000      -0.62130000      -1.85460000
C       -0.29580000      -0.81340000       1.16700000
C        0.57500000      -1.83800000       1.65930000
C        1.31430000      -2.68700000       2.08100000
H        0.78420000       1.80270000       0.30760000
H       -2.16410000      -0.85840000      -0.22150000
H        1.74440000      -1.40270000      -2.50600000
H       -0.82200000      -0.23120000       1.92220000
H        1.96560000      -3.44170000       2.44690000
