19
Properties=species:S:1:pos:R:3 gdb_92606=T pbc="F F F"
O       -0.17580000       1.43780000       0.51860000
C       -0.07250000       0.10860000       0.06970000
C        0.43450000      -0.94680000       1.09350000
C       -0.92410000      -1.69440000       1.02020000
C       -1.87690000      -1.41700000       2.18590000
O       -2.37120000      -0.08780000       1.96720000
C       -2.62230000      -0.00550000       0.56550000
C       -1.41630000      -0.69580000      -0.08010000
O       -1.66500000      -1.27710000      -1.33590000
H       -0.64570000       1.41420000       1.36310000
H        0.49500000       0.13700000      -0.86450000
H        1.29000000      -1.53080000       0.74750000
H        0.67870000      -0.52190000       2.07240000
H       -0.88640000      -2.74300000       0.72540000
H       -2.71410000      -2.13140000       2.18630000
H       -1.40020000      -1.43390000       3.16960000
H       -3.53940000      -0.54710000       0.28690000
H       -2.72430000       1.05080000       0.30490000
H       -1.75160000      -0.56770000      -1.98270000
