16
Properties=species:S:1:pos:R:3 gdb_36209=T pbc="F F F"
N       -0.03290000      -1.08390000       0.47990000
C       -0.00560000       0.02780000       0.16670000
C        0.05310000       1.44260000      -0.21800000
C        1.44050000       2.00010000      -0.13230000
C        2.21870000       2.59410000      -1.03860000
C        3.47050000       2.91380000      -0.19800000
C        3.70720000       1.56050000       0.53960000
C        2.34760000       2.04860000       1.12100000
O        2.87070000       3.41390000       1.04500000
H       -0.34010000       1.54700000      -1.23490000
H       -0.62750000       1.99670000       0.44320000
H        2.05180000       2.80770000      -2.08420000
H        4.26160000       3.53870000      -0.60860000
H        3.73150000       0.63720000      -0.04200000
H        4.51740000       1.61510000       1.26960000
H        1.95230000       1.75760000       2.09350000
