20
Properties=species:S:1:pos:R:3 gdb_13933=T pbc="F F F"
C       -0.70110000       1.17880000       0.09170000
C        0.12340000      -0.09050000      -0.04300000
C        1.47540000      -0.07120000      -0.81240000
C        2.02720000      -1.09610000       0.21460000
C        0.88610000      -0.68220000       1.17150000
C        1.19950000       0.15240000       2.43550000
C        0.55420000      -1.02200000       3.19370000
O        0.23560000      -1.69590000       1.95930000
H       -0.09430000       2.01640000       0.45340000
H       -1.12450000       1.47500000      -0.87420000
H       -1.53500000       1.03940000       0.78890000
H       -0.50120000      -0.90140000      -0.43730000
H        1.46250000      -0.36410000      -1.86410000
H        1.97170000       0.90090000      -0.72820000
H        1.87820000      -2.12740000      -0.11780000
H        3.05530000      -0.98050000       0.56780000
H        2.25900000       0.32650000       2.63220000
H        0.65960000       1.09760000       2.51280000
H        1.23610000      -1.61250000       3.81830000
H       -0.34460000      -0.78760000       3.77620000
