17
Properties=species:S:1:pos:R:3 gdb_46071=T pbc="F F F"
O        0.20450000       0.01970000      -0.31870000
C        0.06120000       1.19200000      -0.12040000
N       -1.09320000       1.86180000       0.24190000
C       -0.95530000       3.29850000       0.07930000
C        0.58810000       3.40150000       0.16380000
O        1.07310000       2.10890000      -0.21200000
C       -1.53020000       3.81500000      -1.22460000
C       -2.94220000       4.26840000      -1.28570000
N       -1.84110000       5.24290000      -1.37760000
H       -1.96790000       1.39510000       0.06110000
H       -1.42310000       3.83910000       0.91250000
H        1.00000000       4.14500000      -0.52160000
H        0.91890000       3.62410000       1.18390000
H       -1.08920000       3.36640000      -2.11370000
H       -3.51780000       4.13960000      -2.19730000
H       -3.52910000       4.23160000      -0.37040000
H       -1.73230000       5.72450000      -0.48670000
