14
Properties=species:S:1:pos:R:3 gdb_28861=T pbc="F F F"
O       -0.08690000       1.21290000      -0.48840000
C        0.03390000      -0.06970000      -0.11600000
N        1.21900000      -0.57970000      -0.10210000
C        1.48960000      -1.86460000       0.31760000
N        0.79650000      -2.94330000       0.33530000
C       -0.54130000      -3.04690000      -0.06480000
N       -1.01670000      -4.08690000      -0.63430000
C       -1.49320000      -1.97410000       0.28620000
C       -1.24410000      -0.65600000       0.25940000
H        0.81000000       1.52140000      -0.69180000
H        2.52140000      -1.96470000       0.65890000
H       -0.25690000      -4.75340000      -0.79740000
H       -2.49680000      -2.31790000       0.51820000
H       -2.04110000       0.05390000       0.45270000
