14
Properties=species:S:1:pos:R:3 gdb_129743=T pbc="F F F"
N       -0.17560000       1.32630000       0.27480000
C       -0.10070000      -0.04630000       0.06420000
C       -1.08190000      -0.97530000      -0.23740000
O       -2.39280000      -0.64740000      -0.52710000
C       -3.35440000      -1.12560000       0.31350000
O       -4.51290000      -0.92870000       0.12400000
C       -0.43230000      -2.22720000      -0.26630000
N        0.86050000      -2.10290000       0.00240000
N        1.03600000      -0.77010000       0.20230000
H        0.51050000       1.85780000      -0.24850000
H       -1.10240000       1.67310000       0.05890000
H       -2.92060000      -1.69680000       1.15390000
H       -0.85620000      -3.19670000      -0.48250000
H        1.94630000      -0.43030000       0.46200000
