23
Properties=species:S:1:pos:R:3 gdb_62649=T pbc="F F F"
C       -0.12730000       1.56140000      -0.00510000
C       -0.06450000       0.03440000      -0.00190000
C       -1.42600000      -0.56060000      -0.35980000
C        1.17890000      -0.61670000      -0.65940000
C        2.11250000      -0.27340000       0.55200000
C        2.62240000      -1.72110000       0.66280000
C        1.13750000      -1.86650000       0.28580000
C        0.70890000      -0.63580000       1.17570000
C        0.34630000      -0.65810000       2.63680000
H        0.83240000       2.01810000       0.25220000
H       -0.41970000       1.93670000      -0.99300000
H       -0.87300000       1.92540000       0.71180000
H       -1.74580000      -0.22980000      -1.35500000
H       -1.41500000      -1.65420000      -0.36180000
H       -2.19570000      -0.23600000       0.35070000
H        1.47620000      -0.62290000      -1.71090000
H        2.66750000       0.65370000       0.70150000
H        3.35200000      -2.04220000      -0.08790000
H        2.92190000      -2.07040000       1.65640000
H        0.56520000      -2.78140000       0.12740000
H        1.08980000      -1.20960000       3.22320000
H        0.28680000       0.35710000       3.04540000
H       -0.62590000      -1.13820000       2.79610000
