15
Properties=species:S:1:pos:R:3 gdb_83306=T pbc="F F F"
O        0.17090000       1.36010000       0.33130000
C        0.00450000      -0.00410000       0.08330000
C       -1.44190000      -0.48580000      -0.19280000
O       -2.03550000       0.26530000      -1.23740000
C       -1.47590000      -0.26310000      -2.45000000
C       -0.46070000      -1.29540000      -1.89960000
O       -1.17870000      -1.76880000      -0.74610000
C        0.63360000      -0.44700000      -1.25010000
O        1.68070000      -0.06040000      -1.69760000
H        0.99940000       1.62420000      -0.09060000
H        0.40390000      -0.62870000       0.89980000
H       -2.11730000      -0.54980000       0.65840000
H       -2.25700000      -0.75410000      -3.04010000
H       -1.01170000       0.53510000      -3.03630000
H       -0.15900000      -2.10380000      -2.56020000
