11
Properties=species:S:1:pos:R:3 gdb_133394=T pbc="F F F"
N       -0.00780000       1.30040000      -0.06780000
C       -0.01880000      -0.04880000       0.01630000
N       -1.14580000      -0.70330000       0.03910000
O       -1.09090000      -2.07870000       0.17740000
N        0.06390000      -2.77490000       0.27910000
C        1.17600000      -2.12900000       0.23670000
F        2.27490000      -2.84750000       0.33290000
C        1.30910000      -0.69170000       0.09180000
O        2.35130000      -0.06400000       0.02850000
H        0.88620000       1.72400000      -0.26010000
H       -0.85320000       1.79320000      -0.29910000
