16
Properties=species:S:1:pos:R:3 gdb_6468=T pbc="F F F"
O       -0.01030000       1.29540000      -0.30230000
C       -0.04990000      -0.11440000      -0.10500000
C       -1.51010000      -0.46330000       0.14530000
O       -1.99230000       0.25060000       1.25750000
C       -2.39600000      -0.39890000      -1.15080000
C       -2.40290000      -1.93300000      -1.14780000
O       -2.70250000      -2.76680000      -1.95220000
C       -1.77980000      -1.98810000       0.25590000
H        0.90470000       1.58870000      -0.27760000
H        0.33360000      -0.65570000      -0.98300000
H        0.54290000      -0.41060000       0.77240000
H       -1.66530000       1.15390000       1.15290000
H       -3.38720000       0.00710000      -0.92590000
H       -1.99260000       0.09910000      -2.03530000
H       -0.92990000      -2.66110000       0.39890000
H       -2.53070000      -2.19110000       1.02620000
