11
Properties=species:S:1:pos:R:3 gdb_23727=T pbc="F F F"
F        0.02330000       0.00630000       0.00310000
C       -0.03370000       1.33480000       0.01050000
C       -1.23260000       1.97080000       0.02980000
N       -1.22340000       3.33770000       0.03650000
C       -0.06200000       4.11950000       0.02480000
O       -0.09940000       5.33610000       0.03150000
C        1.14360000       3.28300000       0.00450000
N        1.14610000       1.98290000      -0.00200000
H       -2.18650000       1.46150000       0.04000000
H       -2.09320000       3.85320000       0.05070000
H        2.09450000       3.80870000      -0.00550000
