13
Properties=species:S:1:pos:R:3 gdb_15744=T pbc="F F F"
N       -0.08800000       1.47070000       0.35610000
C        0.00700000       0.22430000       0.19650000
O       -1.05510000      -0.57150000      -0.15560000
C       -2.33560000      -0.06880000      -0.05360000
O       -3.26330000      -0.70570000      -0.43810000
C        1.24040000      -0.61370000       0.31970000
C        2.37320000      -0.38880000      -0.59750000
O        2.39770000       0.09060000       0.74640000
H        0.82150000       1.83800000       0.64050000
H       -2.35990000       0.92350000       0.41230000
H        1.09530000      -1.60450000       0.74570000
H        3.05130000      -1.21110000      -0.81550000
H        2.28650000       0.37820000      -1.36430000
