17
Properties=species:S:1:pos:R:3 gdb_71920=T pbc="F F F"
C       -0.13060000       1.52510000      -0.01040000
C        0.05240000       0.03920000       0.06130000
O       -1.19030000      -0.69730000       0.25580000
C       -0.55570000      -1.65140000       1.13820000
C        0.14340000      -2.77630000       0.34550000
C        1.31680000      -1.79670000       0.02810000
C        0.76150000      -0.83100000       1.15630000
C        0.90390000      -0.72290000      -0.99130000
O        1.24980000      -0.46840000      -2.10860000
H        0.83570000       2.02780000      -0.11410000
H       -0.73970000       1.78000000      -0.88350000
H       -0.63410000       1.89790000       0.88600000
H       -1.19330000      -1.90260000       1.98760000
H        0.48910000      -3.56950000       1.01630000
H       -0.40730000      -3.21670000      -0.48930000
H        2.32940000      -2.19230000      -0.04050000
H        1.31870000      -0.45810000       2.01010000
