17
Properties=species:S:1:pos:R:3 gdb_121070=T pbc="F F F"
C       -0.63130000       0.52650000       0.15690000
O        0.55280000      -0.25510000       0.18940000
C        1.02400000      -0.65760000      -1.07800000
C        0.75550000      -2.14480000      -1.30750000
O        1.43590000      -2.95330000      -0.36870000
C        0.51660000      -3.30670000       0.64630000
C       -0.85120000      -3.03060000       0.04170000
O       -1.93640000      -3.27590000       0.47220000
O       -0.63620000      -2.41920000      -1.15870000
H       -0.47040000       1.46720000      -0.38910000
H       -1.46780000      -0.01400000      -0.30240000
H       -0.88310000       0.76020000       1.19380000
H        0.56860000      -0.07390000      -1.88950000
H        2.11020000      -0.50750000      -1.11370000
H        1.06470000      -2.44580000      -2.31540000
H        0.62330000      -4.36640000       0.89570000
H        0.64600000      -2.70400000       1.55290000
