19
Properties=species:S:1:pos:R:3 gdb_104515=T pbc="F F F"
C       -1.63540000      -0.79800000      -0.60100000
N       -0.26200000      -0.58620000      -0.13960000
C        0.76190000      -0.71770000      -1.14180000
C        0.63720000       0.09810000      -2.43230000
C        0.64760000       1.53720000      -2.16290000
N        0.64280000       2.66280000      -1.90030000
C        2.15520000      -0.97990000      -0.59610000
C        1.35990000      -2.10910000      -1.20620000
O        0.81490000      -3.10810000      -0.41170000
H       -1.98690000      -0.06360000      -1.34170000
H       -1.71330000      -1.79670000      -1.04120000
H       -2.30950000      -0.75370000       0.25860000
H       -0.17700000       0.29830000       0.35020000
H        1.46320000      -0.14210000      -3.10980000
H       -0.28760000      -0.14970000      -2.96540000
H        3.00330000      -0.57560000      -1.13850000
H        2.26150000      -0.98170000       0.48310000
H        1.67200000      -2.49910000      -2.17010000
H        0.31420000      -2.64030000       0.27470000
