17
Properties=species:S:1:pos:R:3 gdb_36004=T pbc="F F F"
C       -0.29250000      -1.21310000       0.47480000
C       -0.17820000      -0.02870000       0.30060000
C       -0.05060000       1.41400000       0.05470000
C        1.43730000       1.76690000      -0.20370000
C        1.66880000       3.20760000      -0.27220000
N        1.87700000       4.34340000      -0.30320000
N       -0.85240000       1.95420000      -1.04590000
C       -1.11900000       1.12410000      -2.21850000
C       -2.20540000       1.45500000      -1.25360000
H       -0.39350000      -2.25680000       0.64760000
H       -0.37180000       1.94700000       0.95800000
H        2.05710000       1.34400000       0.59270000
H        1.75630000       1.30440000      -1.14340000
H       -1.04770000       1.63960000      -3.17120000
H       -0.76380000       0.09620000      -2.21480000
H       -2.55490000       0.64250000      -0.62050000
H       -2.94580000       2.21380000      -1.48810000
