11
Properties=species:S:1:pos:R:3 gdb_712=T pbc="F F F"
N        0.00660000       1.42210000      -0.22100000
C        1.30180000       0.75930000       0.05850000
C        0.05100000      -0.03030000       0.06780000
C        0.51520000      -0.76510000      -1.24560000
O        0.75940000       0.20600000      -2.26080000
C        1.75160000       0.01500000      -1.25460000
H       -0.27560000       1.87930000       0.64690000
H        1.94500000       1.06070000       0.87400000
H       -0.48920000      -0.47590000       0.89210000
H        0.29560000      -1.78190000      -1.54660000
H        2.76070000      -0.22650000      -1.56450000
