21
Properties=species:S:1:pos:R:3 gdb_20017=T pbc="F F F"
C       -0.45640000      -3.39210000       1.48160000
C       -0.48860000      -1.86500000       1.61720000
C       -1.57210000      -1.24570000       0.75680000
C       -2.94230000      -1.00890000       1.29640000
N       -2.07640000       0.11500000       0.95700000
C       -1.51210000       0.96290000       1.97900000
C       -2.37240000       1.98920000       2.65360000
C       -1.76510000       0.86740000       3.46990000
H        0.34950000      -3.82570000       2.08150000
H       -1.40080000      -3.83660000       1.81220000
H       -0.29550000      -3.69410000       0.44080000
H       -0.63670000      -1.58560000       2.66450000
H        0.48530000      -1.45270000       1.32090000
H       -1.48790000      -1.50460000      -0.29960000
H       -3.82520000      -1.12780000       0.67310000
H       -3.09740000      -1.25390000       2.34560000
H       -0.51660000       1.29300000       1.69470000
H       -1.99140000       2.99740000       2.77280000
H       -3.43890000       1.93370000       2.46190000
H       -2.44150000       0.10900000       3.84660000
H       -0.94240000       1.09320000       4.14070000
