20
Properties=species:S:1:pos:R:3 gdb_85428=T pbc="F F F"
C       -0.01820000       1.69930000      -0.12720000
C        0.01630000       0.19160000       0.08230000
O        0.74280000      -0.42810000      -0.99660000
C        2.00100000      -0.74100000      -0.56780000
N        2.95910000      -1.15160000      -1.27210000
O        2.10400000      -0.55080000       0.76560000
C        0.78440000      -0.33740000       1.32280000
C        0.92380000       0.63040000       2.48940000
C        0.22500000      -1.68940000       1.77580000
H        0.98880000       2.12590000      -0.11140000
H       -0.46660000       1.91940000      -1.09940000
H       -0.61820000       2.18860000       0.64560000
H       -0.99840000      -0.21630000       0.05650000
H        2.68170000      -1.17760000      -2.25060000
H        1.40710000       1.56000000       2.18360000
H       -0.05760000       0.86560000       2.91220000
H        1.53100000       0.17430000       3.27590000
H        0.90080000      -2.15190000       2.49960000
H       -0.75520000      -1.56130000       2.24620000
H        0.11320000      -2.36740000       0.92480000
