22
Properties=species:S:1:pos:R:3 gdb_118292=T pbc="F F F"
C       -0.14260000       1.51570000      -0.00970000
C       -0.12770000      -0.00870000       0.12490000
C        0.84040000      -0.50530000       1.20440000
C        0.91210000      -2.02940000       1.30710000
O        1.33490000      -2.63450000       0.07920000
C        1.81330000      -2.49480000       2.45540000
N        1.89840000      -3.94190000       2.47320000
C        1.81560000      -4.68100000       3.60790000
O        1.72410000      -4.23240000       4.73220000
H        0.84740000       1.90090000      -0.27900000
H       -0.84570000       1.83880000      -0.78340000
H       -0.43780000       1.99600000       0.92990000
H       -1.13810000      -0.36800000       0.35950000
H        0.14140000      -0.46870000      -0.83230000
H        1.85120000      -0.11560000       1.00560000
H        0.54980000      -0.10010000       2.18270000
H       -0.09390000      -2.43470000       1.47160000
H        2.16190000      -2.21280000      -0.18340000
H        2.81300000      -2.04730000       2.33930000
H        1.42400000      -2.17390000       3.42460000
H        1.92340000      -4.40030000       1.57500000
H        1.84440000      -5.76770000       3.39160000
