10
Properties=species:S:1:pos:R:3 gdb_129314=T pbc="F F F"
N       -0.01280000       1.30760000      -0.04790000
C       -0.01990000       0.05240000       0.04220000
O        1.15380000      -0.68530000       0.16570000
N        1.15090000      -2.10350000      -0.03270000
N        0.07170000      -2.68280000      -0.13310000
C       -1.13520000      -1.92970000      -0.01820000
N       -1.21870000      -0.66020000       0.05510000
C       -2.31950000      -2.74480000       0.00130000
N       -3.26190000      -3.41320000       0.01880000
H        0.94030000       1.67210000      -0.06640000
