19
Properties=species:S:1:pos:R:3 gdb_71621=T pbc="F F F"
O       -0.06960000       1.39510000      -0.02190000
C        0.01710000       0.00630000       0.01390000
C        0.35970000      -0.80190000       1.30430000
C       -0.40500000      -1.91990000       0.56290000
C       -1.31610000      -0.81820000      -0.05430000
C       -1.74390000      -1.34180000      -1.42120000
O       -0.75560000      -2.33890000      -1.73720000
C        0.30560000      -2.14110000      -0.80270000
C        0.90380000      -0.72240000      -1.02110000
H        0.81730000       1.75550000      -0.12790000
H        1.41350000      -0.95610000       1.55720000
H       -0.19030000      -0.43760000       2.17500000
H       -0.80970000      -2.79860000       1.06070000
H       -2.10140000      -0.41990000       0.58720000
H       -2.72960000      -1.82040000      -1.39860000
H       -1.76200000      -0.55830000      -2.19110000
H        0.99450000      -2.98060000      -0.89290000
H        0.75490000      -0.39150000      -2.05170000
H        1.96750000      -0.64340000      -0.77150000
