17
Properties=species:S:1:pos:R:3 gdb_5063=T pbc="F F F"
C        0.11960000       1.49070000      -0.03160000
C       -0.05160000       0.01320000      -0.04090000
C       -1.14160000      -0.80350000       0.04360000
C       -2.58340000      -0.43330000       0.19620000
C       -0.63070000      -2.15190000      -0.02990000
N       -1.41940000      -3.30630000       0.10520000
C        0.71940000      -2.04370000      -0.15410000
O        1.08610000      -0.72270000      -0.15490000
H        0.78940000       1.80910000       0.77540000
H        0.54910000       1.85320000      -0.97310000
H       -0.84350000       1.98510000       0.11200000
H       -3.18020000      -0.73310000      -0.67580000
H       -3.02850000      -0.92250000       1.07070000
H       -2.71220000       0.64540000       0.31720000
H       -2.28790000      -3.24320000      -0.41230000
H       -0.93220000      -4.14740000      -0.17650000
H        1.52020000      -2.75940000      -0.23240000
