17
Properties=species:S:1:pos:R:3 gdb_106398=T pbc="F F F"
O        0.07910000       1.38600000      -0.12100000
C        0.02910000      -0.01810000       0.03440000
C       -1.38670000      -0.52000000       0.11230000
C       -2.50380000       0.08750000       1.01780000
C       -3.32130000      -0.45130000      -0.18720000
O       -2.19410000      -0.13340000      -1.04420000
C       -3.15680000      -1.98960000       0.00330000
O       -2.28740000      -2.59240000      -0.95650000
C       -1.71310000      -2.04150000       0.22990000
H       -0.51190000       1.59510000      -0.85440000
H        0.54090000      -0.53900000      -0.79110000
H        0.56170000      -0.26000000       0.96080000
H       -2.67180000      -0.34920000       2.00650000
H       -2.45760000       1.17620000       1.05580000
H       -4.27360000      -0.04140000      -0.51970000
H       -3.90380000      -2.61840000       0.47440000
H       -1.18840000      -2.71490000       0.89850000
