14
Properties=species:S:1:pos:R:3 gdb_19218=T pbc="F F F"
O       -0.07530000       0.02430000      -0.12430000
C       -0.10110000       1.20850000       0.02330000
C       -1.16080000       2.25600000      -0.05400000
C       -1.00810000       3.21870000       1.12350000
C       -0.06380000       3.35050000      -0.01090000
C        1.05320000       2.29000000       0.11370000
C        1.92830000       2.31810000       1.26460000
C        2.63190000       2.32650000       2.23990000
H       -2.08130000       2.19880000      -0.62080000
H       -1.80200000       3.95570000       1.18080000
H       -0.65790000       2.85690000       2.08500000
H       -0.00190000       4.22650000      -0.64190000
H        1.62940000       2.20310000      -0.81520000
H        3.26100000       2.33320000       3.09530000
