12
Properties=species:S:1:pos:R:3 gdb_3665=T pbc="F F F"
C       -0.04180000       1.56460000       0.11370000
C        0.01450000       0.08180000      -0.01060000
C        0.05690000      -0.76420000      -1.09790000
O        0.05700000      -0.41440000      -2.40090000
N        0.10050000      -2.05280000      -0.68740000
N        0.08820000      -2.07700000       0.62230000
N        0.03690000      -0.80210000       1.02810000
H        0.82390000       1.96690000       0.65240000
H       -0.04860000       2.00770000      -0.88440000
H       -0.94520000       1.90120000       0.63530000
H        0.09250000      -1.23500000      -2.90810000
H        0.01960000      -0.60480000       2.01620000
