18
Properties=species:S:1:pos:R:3 gdb_114498=T pbc="F F F"
C        0.08730000       1.52100000       0.10240000
C       -0.18020000       0.02160000      -0.00120000
N        0.54260000      -0.56740000      -1.11450000
C        0.07320000      -0.28370000      -2.49440000
C        0.16290000      -1.78080000      -2.83180000
O        1.51070000      -2.24440000      -3.14570000
C        1.77280000      -2.57980000      -1.82670000
O        2.75210000      -3.08600000      -1.39070000
C        0.42310000      -2.03100000      -1.33260000
H        1.15660000       1.71190000       0.22730000
H       -0.24860000       2.04750000      -0.79730000
H       -0.44930000       1.94730000       0.95520000
H        0.15860000      -0.47880000       0.91320000
H       -1.27170000      -0.15640000      -0.07910000
H       -0.97080000       0.06300000      -2.52880000
H        0.70420000       0.39510000      -3.07500000
H       -0.58080000      -2.26160000      -3.46220000
H       -0.18860000      -2.60880000      -0.63890000
