14
Properties=species:S:1:pos:R:3 gdb_56459=T pbc="F F F"
O       -0.30910000       0.48180000      -0.79290000
C        0.47280000      -0.36900000      -0.01700000
C        1.91910000      -0.17540000      -0.25890000
N        3.05180000      -0.01780000      -0.42450000
C        0.19290000      -0.13640000       1.49170000
O       -0.57070000       0.74310000       1.79790000
C        0.91530000      -0.99850000       2.52340000
C        1.03640000      -2.40030000       2.14880000
C        1.12280000      -3.55520000       1.83080000
H       -0.70510000       1.11330000      -0.16850000
H        0.23860000      -1.41920000      -0.23990000
H        1.91510000      -0.55900000       2.65280000
H        0.38690000      -0.87560000       3.47370000
H        1.21050000      -4.57800000       1.55660000
