14
Properties=species:S:1:pos:R:3 gdb_21110=T pbc="F F F"
C       -0.03110000       1.42570000       0.01420000
N       -0.00780000      -0.03060000       0.04280000
N       -0.04390000      -0.62570000      -1.15670000
N       -0.02820000      -1.89660000      -1.25530000
C        0.02700000      -2.65190000      -0.09710000
C        0.06550000      -2.11920000       1.14090000
C        0.04930000      -0.68110000       1.29330000
N        0.07800000       0.04690000       2.34820000
H        0.86430000       1.81780000       0.50230000
H       -0.07550000       1.72910000      -1.03030000
H       -0.89840000       1.79080000       0.56940000
H        0.03690000      -3.72250000      -0.26880000
H        0.10840000      -2.73530000       2.03200000
H        0.11830000      -0.54270000       3.17820000
