23
Properties=species:S:1:pos:R:3 gdb_122364=T pbc="F F F"
C        0.19230000       1.42810000       0.20340000
C       -0.16530000      -0.00940000      -0.18080000
C        0.78750000      -0.58960000      -1.21670000
O        0.38510000      -1.91440000      -1.51300000
C        1.15170000      -2.52640000      -2.50710000
C        2.52060000      -3.19860000      -2.14500000
C        1.69830000      -4.27000000      -1.36710000
C        0.92290000      -4.04320000      -2.70190000
C        2.30390000      -4.06190000      -3.41900000
H        1.20140000       1.49000000       0.62580000
H        0.15610000       2.09530000      -0.66500000
H       -0.50370000       1.81980000       0.95070000
H       -0.15000000      -0.65480000       0.70510000
H       -1.18430000      -0.05530000      -0.58180000
H        0.77590000       0.02360000      -2.13460000
H        1.82200000      -0.57720000      -0.83550000
H        1.15830000      -1.91630000      -3.42340000
H        3.44520000      -2.71180000      -1.83190000
H        2.17390000      -5.24690000      -1.24550000
H        1.20100000      -3.93980000      -0.45590000
H        0.00070000      -4.52670000      -3.02610000
H        2.37040000      -3.55350000      -4.38570000
H        2.81890000      -5.02460000      -3.43670000
