15
Properties=species:S:1:pos:R:3 gdb_47628=T pbc="F F F"
O        0.00390000      -0.02850000      -0.24470000
C       -0.01570000       1.17120000      -0.05890000
N       -1.16530000       1.87700000       0.18360000
C       -1.24280000       3.32780000       0.07260000
C       -0.04400000       3.96860000       0.77470000
C        1.23070000       3.27840000       0.39250000
C        1.24010000       1.99810000      -0.01580000
C        2.45740000       1.33660000      -0.36750000
N        3.45980000       0.83570000      -0.65520000
H       -2.00740000       1.33650000       0.04710000
H       -1.25960000       3.64500000      -0.98120000
H       -2.17700000       3.66300000       0.53030000
H        0.00920000       5.03290000       0.52490000
H       -0.16270000       3.91110000       1.86660000
H        2.16530000       3.82430000       0.48070000
