16
Properties=species:S:1:pos:R:3 gdb_61366=T pbc="F F F"
C       -0.01270000       1.42600000       0.10610000
N        0.03320000      -0.02520000       0.00210000
C       -0.10310000      -0.81100000       1.19540000
C       -1.52420000      -0.81770000       1.77980000
O       -2.46140000      -0.27940000       1.23910000
C       -1.64730000      -1.52980000       3.03880000
C       -1.71150000      -2.13460000       4.07760000
C        0.14070000      -0.62130000      -1.22410000
O        0.23280000      -0.04130000      -2.28240000
H        0.77140000       1.78480000       0.78330000
H        0.15560000       1.82990000      -0.89200000
H       -0.98710000       1.75880000       0.47440000
H        0.17140000      -1.85310000       0.98860000
H        0.58540000      -0.46560000       1.98010000
H       -1.79140000      -2.66290000       4.99720000
H        0.14830000      -1.72660000      -1.14040000
