23
Properties=species:S:1:pos:R:3 gdb_90030=T pbc="F F F"
C       -0.11500000       1.62280000       0.09090000
C       -0.00610000       0.10810000       0.02190000
C        1.07200000      -0.52760000      -0.90250000
C        1.34950000      -1.58180000       0.19880000
C        0.85940000      -3.02890000      -0.01320000
O        2.19810000      -3.54860000       0.09310000
C        2.72540000      -2.24320000       0.43880000
C        3.90560000      -1.85100000      -0.42640000
C        0.63790000      -0.65820000       1.21290000
H        0.85750000       2.07500000       0.31810000
H       -0.46260000       2.04180000      -0.86020000
H       -0.81860000       1.93750000       0.86980000
H       -0.98700000      -0.32470000      -0.20530000
H        0.75760000      -0.89380000      -1.88400000
H        1.92400000       0.14730000      -1.04070000
H        0.20450000      -3.41480000       0.78140000
H        0.40700000      -3.25610000      -0.98750000
H        3.01370000      -2.21930000       1.50170000
H        3.62890000      -1.83440000      -1.48470000
H        4.28110000      -0.86060000      -0.14580000
H        4.71960000      -2.57100000      -0.29600000
H        1.35600000      -0.02850000       1.75170000
H       -0.02610000      -1.12910000       1.94390000
