16
Properties=species:S:1:pos:R:3 gdb_74830=T pbc="F F F"
C       -0.06780000       1.43330000      -0.02240000
C       -0.03710000      -0.05290000      -0.06450000
N       -0.07990000      -0.79820000      -1.09950000
C        0.04080000      -2.15480000      -0.66000000
C        1.29440000      -2.53060000       0.06980000
C        0.12560000      -2.05820000       0.89350000
O        0.04190000      -0.67280000       1.15800000
C       -0.60610000      -2.92980000       1.82760000
O       -0.55270000      -4.13670000       1.79810000
H        0.87760000       1.82390000       0.36760000
H       -0.23190000       1.82230000      -1.02670000
H       -0.86370000       1.77670000       0.64530000
H       -0.54590000      -2.90960000      -1.16940000
H        1.49480000      -3.59140000       0.17080000
H        2.15710000      -1.87740000      -0.00700000
H       -1.23650000      -2.37690000       2.55670000
