20
Properties=species:S:1:pos:R:3 gdb_114952=T pbc="F F F"
C       -0.20310000       1.53010000       0.06750000
C        0.06640000       0.02840000      -0.01550000
C        0.82930000      -0.37610000      -1.23570000
N        1.26870000       0.38220000      -2.15380000
C        1.93030000      -0.49010000      -3.12850000
C        1.93200000      -1.88880000      -2.48190000
O        3.21850000      -2.20520000      -2.06860000
C        3.33950000      -3.48900000      -1.47770000
O        1.04840000      -1.72560000      -1.35180000
H        0.73260000       2.09410000       0.07480000
H       -0.78250000       1.87130000      -0.79380000
H       -0.76050000       1.76650000       0.97820000
H        0.62870000      -0.32060000       0.86010000
H       -0.87080000      -0.54270000      -0.00330000
H        1.38450000      -0.47420000      -4.07800000
H        2.95690000      -0.16550000      -3.31860000
H        1.50940000      -2.69780000      -3.09270000
H        2.75970000      -3.55990000      -0.55050000
H        3.00230000      -4.27710000      -2.16740000
H        4.39810000      -3.63790000      -1.25630000
