14
Properties=species:S:1:pos:R:3 gdb_131059=T pbc="F F F"
O       -0.10060000      -0.01140000      -0.04620000
C        0.02580000       1.12010000       0.37210000
N        1.20610000       1.78880000       0.40750000
C        2.42020000       1.17300000      -0.08050000
C        3.54110000       2.15140000       0.01110000
N        3.49410000       3.37140000       0.45810000
C        4.79970000       3.77400000       0.30460000
N        5.60160000       2.87910000      -0.19780000
O        4.75330000       1.77670000      -0.39860000
H       -0.81070000       1.72590000       0.77010000
H        1.26650000       2.73520000       0.75210000
H        2.66910000       0.27260000       0.49640000
H        2.30080000       0.84000000      -1.11940000
H        5.15570000       4.75730000       0.57490000
