16
Properties=species:S:1:pos:R:3 gdb_79175=T pbc="F F F"
O        0.13180000       1.39740000       0.24240000
C       -0.01200000       0.00130000       0.05230000
C       -1.44510000      -0.43260000      -0.12350000
C       -2.22260000      -0.10560000      -1.34510000
C       -1.35850000       0.27140000      -2.53730000
C       -0.47650000      -0.95970000      -2.14310000
N       -1.56750000      -1.46350000      -1.20220000
C        0.64180000      -0.43820000      -1.27510000
O        1.80290000      -0.27700000      -1.55090000
H        1.07110000       1.59470000       0.13440000
H        0.44520000      -0.56340000       0.88080000
H       -2.02530000      -0.67250000       0.76070000
H       -3.30100000       0.00730000      -1.29290000
H       -1.87230000       0.08530000      -3.48180000
H       -0.89820000       1.26230000      -2.55750000
H       -0.18690000      -1.65700000      -2.92540000
