20
Properties=species:S:1:pos:R:3 gdb_55797=T pbc="F F F"
C       -1.79160000       0.00320000       2.02860000
C       -2.73750000       0.01750000       0.84590000
O       -3.82280000       0.54960000       0.88810000
C       -2.25190000      -0.63820000      -0.45280000
N       -1.41170000      -1.80350000      -0.19980000
C       -0.85680000      -2.57700000      -1.38600000
C       -0.63700000      -3.74470000      -0.38980000
C       -2.06250000      -3.18400000      -0.15320000
C       -2.25990000      -3.17280000      -1.69710000
H       -2.20780000       0.60680000       2.83600000
H       -1.63100000      -1.02480000       2.36690000
H       -0.80580000       0.37920000       1.73590000
H       -3.13940000      -0.78780000      -1.08190000
H       -1.62420000       0.11240000      -0.95650000
H       -0.13690000      -2.12500000      -2.07100000
H       -0.56570000      -4.74730000      -0.81330000
H        0.08290000      -3.55550000       0.40650000
H       -2.77660000      -3.45600000       0.62600000
H       -3.01410000      -2.50210000      -2.10720000
H       -2.28930000      -4.14300000      -2.20000000
