19
Properties=species:S:1:pos:R:3 gdb_116649=T pbc="F F F"
C       -0.12430000       1.50620000      -0.00640000
N        0.18790000       0.09490000       0.07250000
C        0.70840000      -0.62250000      -0.95420000
N        0.76320000      -1.89780000      -0.96360000
H       -0.35030000      -3.39930000      -0.92890000
C        1.40420000      -2.55830000      -2.08950000
C        2.83470000      -3.00660000      -1.74710000
C        0.57660000      -3.79870000      -2.48310000
O       -0.39990000      -4.09940000      -1.61550000
O        0.80390000      -4.45090000      -3.46700000
H        0.49700000       1.96840000      -0.77790000
H       -1.17640000       1.69700000      -0.25700000
H        0.09930000       1.99970000       0.94410000
H       -0.22650000      -0.44590000       0.81720000
H        1.10590000       0.00050000      -1.76690000
H        1.44260000      -1.91650000      -2.98300000
H        2.83340000      -3.62660000      -0.84560000
H        3.24880000      -3.58650000      -2.57510000
H        3.47090000      -2.13600000      -1.56300000
