15
Properties=species:S:1:pos:R:3 gdb_79129=T pbc="F F F"
O       -0.03460000       1.44980000      -0.03150000
C        0.02550000       0.04730000       0.00570000
C        0.01290000      -0.66210000       1.38480000
C       -1.47800000      -0.24560000       1.55050000
O       -2.18670000      -1.27540000       2.25410000
C       -1.66520000      -2.42290000       1.70490000
O       -1.98510000      -3.52930000       2.01720000
C       -0.66660000      -1.90110000       0.69450000
C       -1.34820000      -0.63800000       0.04880000
H        0.86130000       1.79820000       0.00720000
H        0.73450000      -0.35790000      -0.72600000
H        0.78400000      -0.69350000       2.15500000
H       -1.78790000       0.73890000       1.88160000
H       -0.10310000      -2.61950000       0.10520000
H       -2.13100000      -0.63720000      -0.70910000
