15
Properties=species:S:1:pos:R:3 gdb_11931=T pbc="F F F"
N       -0.07380000       1.46490000      -0.23550000
C       -0.02930000       0.06520000      -0.06780000
C       -0.36870000      -0.83750000      -1.21920000
C       -1.19370000      -0.95890000       0.03650000
N       -0.42720000      -1.79380000       0.99370000
C        0.64550000      -0.74160000       1.05410000
C       -2.60050000      -0.77950000       0.11390000
N       -3.74480000      -0.62900000       0.21510000
H       -0.05230000       1.96460000       0.64600000
H        0.67650000       1.80730000      -0.82600000
H       -0.85730000      -0.32570000      -2.04090000
H        0.26390000      -1.68010000      -1.48410000
H       -0.91620000      -1.85530000       1.88150000
H        1.65430000      -1.12380000       0.86310000
H        0.64220000      -0.18930000       2.00070000
