19
Properties=species:S:1:pos:R:3 gdb_77684=T pbc="F F F"
O       -0.34980000       1.51730000       0.04980000
C       -0.18290000       0.12690000       0.07550000
C       -0.50620000      -0.76400000       1.26940000
O        0.33080000      -1.84770000       1.52950000
C       -1.31890000      -0.18540000       2.41970000
C       -2.54420000       0.49750000       1.76650000
C       -2.74560000      -0.21480000       0.40850000
C       -1.38450000      -0.78670000       0.03190000
O       -1.35010000      -1.89170000      -0.81590000
H        0.34270000       1.91490000       0.58800000
H        0.65350000      -0.25600000      -0.51220000
H        1.12250000      -1.51890000       1.96880000
H       -1.61890000      -1.02700000       3.05430000
H       -0.74710000       0.50700000       3.04940000
H       -3.43270000       0.42890000       2.39940000
H       -2.33510000       1.55430000       1.59850000
H       -3.43190000      -1.06410000       0.49900000
H       -3.15130000       0.45960000      -0.35300000
H       -1.46310000      -1.57660000      -1.71930000
