17
Properties=species:S:1:pos:R:3 gdb_64876=T pbc="F F F"
O        0.24650000       1.46850000      -0.42660000
C       -0.04000000       0.16860000       0.05160000
C        0.09110000      -0.04450000       1.59980000
C       -1.37430000      -0.58700000       1.65090000
C       -1.57260000      -0.05630000       0.19420000
C       -1.45210000      -2.08700000       1.76010000
O       -2.11790000      -2.68020000       2.57010000
C        0.65110000      -0.85030000      -0.73290000
C        1.25780000      -1.66420000      -1.37820000
H        1.17880000       1.50410000      -0.66740000
H        0.88720000      -0.70790000       1.94450000
H        0.17630000       0.92320000       2.09750000
H       -2.02080000      -0.14980000       2.41220000
H       -2.08280000       0.90830000       0.18460000
H       -2.04110000      -0.72380000      -0.53120000
H       -0.82940000      -2.63590000       1.01570000
H        1.78130000      -2.38860000      -1.95260000
