11
Properties=species:S:1:pos:R:3 gdb_24999=T pbc="F F F"
O        0.00140000       0.06730000       0.01870000
C       -0.01480000       1.24710000       0.01760000
O       -1.16170000       2.04160000       0.07810000
C       -0.70230000       3.32140000       0.19180000
C        0.62040000       3.33950000       0.17350000
O        1.11010000       4.49090000      -0.36480000
C       -0.07490000       5.32640000      -0.29090000
O       -1.23810000       4.45880000      -0.33230000
O        1.11120000       2.07270000       0.04660000
H       -0.06860000       5.84510000       0.67640000
H       -0.09600000       6.01000000      -1.13770000
