14
Properties=species:S:1:pos:R:3 gdb_27338=T pbc="F F F"
N        0.03030000       1.32910000       0.12160000
C       -0.02390000      -0.02570000       0.04910000
N       -1.15020000      -0.65820000       0.04670000
C       -1.14250000      -2.04010000       0.02720000
O       -2.15930000      -2.71190000      -0.01640000
C        0.18930000      -2.71360000       0.04140000
N        0.14360000      -4.09000000       0.10880000
C        1.29080000      -1.94520000       0.01380000
O        1.20540000      -0.56590000       0.01150000
H        0.88850000       1.78780000      -0.13340000
H       -0.83630000       1.81150000      -0.04750000
H       -0.78330000      -4.42850000      -0.12210000
H        0.89840000      -4.60320000      -0.31920000
H        2.31990000      -2.27440000      -0.00190000
