17
Properties=species:S:1:pos:R:3 gdb_47754=T pbc="F F F"
N       -0.01230000       1.34050000      -0.14550000
C        0.02170000       0.09370000       0.04200000
O        1.18750000      -0.61020000       0.10460000
C        1.28170000      -1.74420000       0.98580000
C        0.09430000      -2.68560000       0.85790000
C       -1.20090000      -1.90320000       1.07290000
C       -1.25970000      -0.73870000       0.05550000
C       -2.45140000       0.08340000       0.26070000
N       -3.43680000       0.65550000       0.44780000
H        0.93640000       1.72030000      -0.16660000
H        2.22170000      -2.23120000       0.71860000
H        1.36780000      -1.37630000       2.01770000
H        0.09550000      -3.15160000      -0.13490000
H        0.19120000      -3.48850000       1.59590000
H       -2.08250000      -2.53710000       0.94930000
H       -1.23490000      -1.49640000       2.09000000
H       -1.33530000      -1.18180000      -0.94850000
