23
Properties=species:S:1:pos:R:3 gdb_38307=T pbc="F F F"
C       -0.02940000       1.54980000       0.12240000
C        1.52240000       1.45330000       0.04670000
C        1.32910000       0.13860000       0.86940000
C        0.00340000      -0.00490000       0.05410000
C        0.31230000      -0.48370000      -1.41650000
C       -0.16170000       0.54020000      -2.48530000
C        0.97150000       1.62820000      -2.49080000
C        1.98070000       1.11820000      -1.42460000
C        1.83370000      -0.39980000      -1.65100000
H       -0.34750000       1.88620000       1.11330000
H       -0.58060000       2.12010000      -0.62300000
H        2.11300000       2.26410000       0.47990000
H        2.08370000      -0.64750000       0.84880000
H        1.10800000       0.37410000       1.91360000
H       -0.82850000      -0.56000000       0.49420000
H       -0.10560000      -1.47970000      -1.58400000
H       -0.22520000       0.04820000      -3.46090000
H       -1.15110000       0.95360000      -2.27460000
H        1.46070000       1.66700000      -3.46900000
H        0.59970000       2.63460000      -2.28300000
H        2.99200000       1.49440000      -1.59900000
H        2.44130000      -1.02930000      -1.00300000
H        2.08330000      -0.66490000      -2.68490000
