19
Properties=species:S:1:pos:R:3 gdb_37500=T pbc="F F F"
C       -0.08190000       1.56830000      -0.04390000
C        1.45160000       1.51700000       0.00450000
C        1.39350000       0.19470000       0.82710000
C        2.53150000      -0.44290000      -0.05200000
C        2.24900000      -1.82970000      -0.55400000
C        1.17460000      -1.76230000      -1.34760000
C        0.67180000      -0.33760000      -1.36610000
C        0.04260000       0.02210000       0.02180000
C        1.94780000       0.53270000      -1.11920000
H       -0.50340000       2.00160000       0.86850000
H       -0.57950000       1.99910000      -0.92010000
H        2.08810000       2.36230000       0.26280000
H        1.36710000       0.14240000       1.91430000
H        3.53280000      -0.22320000       0.32130000
H        2.78180000      -2.72340000      -0.25240000
H        0.65660000      -2.59130000      -1.81490000
H        0.03900000      -0.06080000      -2.21140000
H       -0.76940000      -0.61220000       0.37670000
H        2.52710000       0.85080000      -1.98680000
