22
Properties=species:S:1:pos:R:3 gdb_58608=T pbc="F F F"
C        0.53630000       1.61290000      -0.31080000
C        0.06170000       0.18570000       0.01800000
C        0.12250000      -0.70910000      -1.22530000
C        0.82940000      -0.34760000       1.23210000
C        1.30990000      -1.76690000       1.30300000
N        2.26960000      -0.67440000       1.14180000
C        0.41680000       0.28670000       2.54790000
C        1.41860000       0.29130000       3.68510000
O       -0.68470000       0.77930000       2.66830000
H        1.58730000       1.62220000      -0.62360000
H       -0.05610000       2.03780000      -1.12690000
H        0.43410000       2.27220000       0.55500000
H       -0.98150000       0.25310000       0.34190000
H        1.15250000      -0.89220000      -1.55870000
H       -0.35820000      -1.67740000      -1.06080000
H       -0.39530000      -0.22200000      -2.05690000
H        1.35060000      -2.28190000       2.25880000
H        1.09750000      -2.41160000       0.45690000
H        2.56800000      -0.61590000       0.17060000
H        1.82520000      -0.70460000       3.88090000
H        2.27360000       0.91750000       3.41160000
H        0.93510000       0.68320000       4.58040000
