23
Properties=species:S:1:pos:R:3 gdb_64368=T pbc="F F F"
C       -0.31900000       1.57660000       0.11940000
C       -0.00210000       0.08280000       0.04020000
C       -1.27060000      -0.72180000      -0.27600000
O        0.91170000      -0.11670000      -1.06550000
C        2.11790000      -0.72760000      -0.62450000
C        1.75670000      -1.45610000       0.66970000
C        0.74450000      -0.48850000       1.26430000
C        1.13330000       0.34590000       2.46130000
C        0.08900000      -0.73800000       2.59080000
H        0.59420000       2.16090000       0.25790000
H       -0.79410000       1.90100000      -0.81080000
H       -1.00590000       1.79890000       0.94330000
H       -1.65090000      -0.43680000      -1.26120000
H       -1.05910000      -1.79470000      -0.29120000
H       -2.05590000      -0.53680000       0.46380000
H        2.47720000      -1.38940000      -1.41930000
H        2.89290000       0.03290000      -0.43810000
H        1.29270000      -2.42410000       0.44590000
H        2.61600000      -1.63460000       1.32160000
H        2.11120000       0.17310000       2.89970000
H        0.79970000       1.37530000       2.51920000
H       -0.94270000      -0.42680000       2.72150000
H        0.34470000      -1.64690000       3.12610000
