17
Properties=species:S:1:pos:R:3 gdb_37432=T pbc="F F F"
C       -0.01160000       1.48700000      -0.17560000
N        1.19840000       2.13900000       0.31050000
C        2.03730000       1.50520000       1.00330000
O        2.07040000       0.19790000       1.38360000
C        1.07380000      -0.66100000       0.86180000
C        0.00340000      -1.16840000       1.82200000
N       -0.82250000      -0.00480000       2.21530000
C       -1.06920000      -0.66230000       0.91510000
C       -0.04560000      -0.04430000      -0.05180000
H       -0.84810000       1.91600000       0.38680000
H       -0.14690000       1.78970000      -1.21970000
H        2.91980000       2.00660000       1.39630000
H        1.58640000      -1.49070000       0.36730000
H        0.04610000      -2.05630000       2.44010000
H       -1.52030000      -0.34570000       2.87510000
H       -2.03130000      -1.09690000       0.67530000
H       -0.04670000      -0.53030000      -1.02900000
