16
Properties=species:S:1:pos:R:3 gdb_48117=T pbc="F F F"
O       -0.81720000       1.40340000      -0.19240000
C        0.30320000       1.01590000       0.01810000
C        1.54560000       1.90100000       0.10500000
O        2.63190000       1.38520000       0.32280000
N        1.35230000       3.21730000      -0.10740000
C        0.19440000       4.12210000      -0.28400000
C        1.16570000       5.30740000      -0.15360000
C        1.95560000       5.20610000       1.12780000
C        2.30790000       4.30370000      -0.02210000
H        0.56040000      -0.05110000       0.17890000
H       -0.25410000       4.02310000      -1.27570000
H       -0.58530000       4.02450000       0.47530000
H        1.12200000       6.20720000      -0.74980000
H        2.65220000       6.02030000       1.30020000
H        1.50940000       4.78800000       2.02580000
H        3.27940000       4.23600000      -0.49250000
