21
Properties=species:S:1:pos:R:3 gdb_116175=T pbc="F F F"
C       -0.05380000       1.38460000      -0.01580000
O       -0.03050000      -0.03320000      -0.05720000
C        0.61620000      -0.55800000      -1.16040000
C        0.71160000      -2.07110000      -0.98890000
O        1.27300000      -2.66090000      -2.14840000
C        0.52420000      -2.34610000      -3.31080000
C        0.42750000      -0.83240000      -3.50530000
C       -0.45080000      -0.43390000      -4.67970000
O       -0.13300000      -0.25110000      -2.32850000
H        0.96590000       1.79760000      -0.02600000
H       -0.61350000       1.80070000      -0.85990000
H       -0.54220000       1.66470000       0.91960000
H        1.63210000      -0.12740000      -1.27270000
H        1.36570000      -2.32380000      -0.15110000
H       -0.29900000      -2.45940000      -0.78810000
H        1.04270000      -2.81660000      -4.15160000
H       -0.49300000      -2.76680000      -3.24030000
H        1.45000000      -0.44220000      -3.64820000
H       -1.46440000      -0.82560000      -4.55140000
H       -0.51250000       0.65490000      -4.75200000
H       -0.04140000      -0.82140000      -5.61760000
