19
Properties=species:S:1:pos:R:3 gdb_10823=T pbc="F F F"
C       -0.12610000       1.54630000       0.03170000
C        0.00500000       0.02210000      -0.01800000
C        0.72810000      -0.47450000      -1.27470000
C        0.83720000      -2.00340000      -1.24180000
C        1.38250000      -2.53600000       0.06300000
N        2.10330000      -3.57630000       0.10150000
O        0.96900000      -1.91350000       1.20970000
C        0.76320000      -0.49330000       1.20330000
H        0.85820000       2.02860000       0.01980000
H       -0.68670000       1.91610000      -0.83230000
H       -0.64920000       1.87580000       0.93560000
H       -1.00060000      -0.42120000      -0.00100000
H        0.20110000      -0.15400000      -2.17970000
H        1.72990000      -0.02520000      -1.31660000
H       -0.16650000      -2.43270000      -1.36740000
H        1.45560000      -2.39670000      -2.04990000
H        2.33580000      -3.79740000       1.07280000
H        1.74370000       0.00340000       1.26520000
H        0.22220000      -0.28040000       2.12940000
