19
Properties=species:S:1:pos:R:3 gdb_2012=T pbc="F F F"
C       -0.03440000       1.53150000       0.04420000
C        0.02850000       0.00260000      -0.04940000
C        0.73450000      -0.49500000      -1.28700000
C        2.21290000      -0.22070000      -1.72170000
C        1.61540000      -1.12940000      -2.83100000
C        0.98160000      -1.98080000      -1.69700000
C        0.34320000      -0.23940000      -2.78070000
H        0.96950000       1.96860000       0.06200000
H       -0.56700000       1.95890000      -0.81180000
H       -0.55340000       1.85030000       0.95320000
H        0.53770000      -0.40080000       0.83600000
H       -0.98890000      -0.41040000      -0.03120000
H        2.46100000       0.80540000      -2.00860000
H        2.99510000      -0.65930000      -1.09430000
H        2.12430000      -1.49630000      -3.72290000
H        1.66920000      -2.55340000      -1.06690000
H        0.09630000      -2.56900000      -1.95800000
H       -0.59040000      -0.69520000      -3.12500000
H        0.44610000       0.78530000      -3.14990000
