21
Properties=species:S:1:pos:R:3 gdb_80148=T pbc="F F F"
C       -0.36580000       1.47710000      -0.24150000
C       -0.09240000      -0.00280000      -0.11570000
C        1.31160000      -0.60150000      -0.27730000
C        2.53310000       0.22750000      -0.42450000
C        3.13700000       0.72900000       0.65150000
C        2.54400000       0.51520000       2.02100000
O        1.13010000       0.36510000       1.99300000
C        0.64000000      -0.58390000       1.07300000
C        0.16510000      -1.85240000       1.74030000
H        0.45190000       2.06810000       0.17330000
H       -0.50000000       1.76230000      -1.29060000
H       -1.27970000       1.74740000       0.29840000
H       -0.88160000      -0.63910000      -0.51030000
H        1.34660000      -1.55820000      -0.79370000
H        2.93330000       0.38710000      -1.42220000
H        4.05830000       1.29960000       0.58140000
H        3.01840000      -0.35460000       2.50910000
H        2.73240000       1.38020000       2.66520000
H       -0.61150000      -1.62750000       2.47910000
H       -0.24900000      -2.55110000       1.00690000
H        0.98930000      -2.35500000       2.25920000
