9
Properties=species:S:1:pos:R:3 gdb_60=T pbc="F F F"
C       -0.43130000       1.30590000      -0.12760000
C        0.25290000      -0.01030000       0.13140000
O        0.69870000      -0.36890000       1.19600000
C        0.38980000      -0.96770000      -1.06230000
O       -0.01610000      -0.71560000      -2.16580000
H        0.10010000       1.85320000      -0.91330000
H       -1.44270000       1.13070000      -0.50920000
H       -0.46760000       1.89550000       0.78840000
H        0.90330000      -1.91560000      -0.79530000
