13
Properties=species:S:1:pos:R:3 gdb_17012=T pbc="F F F"
C       -0.04210000      -1.23650000      -0.06260000
C        0.00250000      -0.03740000       0.00130000
C       -0.01140000       1.40980000       0.01390000
C        0.05650000       2.13150000       1.40250000
N        1.50980000       1.67070000       1.46740000
C        1.36580000       2.15600000       0.02790000
C        0.61790000       3.36220000       0.64800000
O        0.64480000       4.55100000       0.69490000
H       -0.06520000      -2.29740000      -0.10350000
H       -0.74920000       1.81710000      -0.68170000
H       -0.62280000       2.03300000       2.24600000
H        2.07900000       2.31730000       2.02110000
H        2.17680000       2.08540000      -0.69330000
