17
Properties=species:S:1:pos:R:3 gdb_24221=T pbc="F F F"
C       -0.02090000       1.47310000       0.08660000
C        1.30540000       0.75520000       0.04930000
C        2.02250000       0.41240000       1.37280000
C        1.01330000      -0.50610000       1.98440000
C       -0.07740000      -0.78250000       1.22690000
C       -0.90540000      -1.63720000       2.02380000
C       -0.23170000      -1.79640000       3.19940000
O        0.94830000      -1.09740000       3.19900000
C       -0.00770000      -0.03570000      -0.05580000
H       -0.37200000       1.88550000       1.02730000
H       -0.27920000       2.06190000      -0.78820000
H        1.92140000       0.89560000      -0.83070000
H        2.98830000      -0.07620000       1.18950000
H        2.22520000       1.30360000       1.97900000
H       -1.85850000      -2.07910000       1.77780000
H       -0.43730000      -2.35300000       4.09870000
H       -0.32360000      -0.48520000      -0.99020000
