19
Properties=species:S:1:pos:R:3 gdb_106568=T pbc="F F F"
C       -0.21690000       1.52850000       0.00540000
C        0.07410000       0.02320000      -0.06850000
C        0.76010000      -0.51140000       1.16950000
C        0.94240000      -2.03880000       1.47370000
C        1.20100000      -1.58100000       2.94270000
C        2.39320000      -0.65980000       2.75400000
C        2.11460000       0.02010000       1.62640000
C        0.08980000      -0.50100000       2.61370000
O       -0.83930000       0.00920000       3.14670000
H        0.70490000       2.11240000       0.09530000
H       -0.73690000       1.86850000      -0.89500000
H       -0.84550000       1.75810000       0.87040000
H       -0.86810000      -0.52030000      -0.20960000
H        0.69070000      -0.19820000      -0.94930000
H        0.02080000      -2.61750000       1.34770000
H        1.79110000      -2.51650000       0.97700000
H        1.15600000      -2.25110000       3.79740000
H        3.20100000      -0.51720000       3.45750000
H        2.64310000       0.85350000       1.18510000
