15
Properties=species:S:1:pos:R:3 gdb_28619=T pbc="F F F"
C       -0.01190000       1.49500000      -0.00420000
C        0.00570000      -0.00480000      -0.01180000
N       -0.09200000      -0.62260000      -1.19750000
C       -0.07380000      -1.95440000      -1.17530000
C        0.03950000      -2.68890000       0.00140000
C        0.05770000      -4.16460000       0.00470000
O        0.15430000      -4.84320000       1.00020000
C        0.13500000      -1.93910000       1.18040000
N        0.11920000      -0.61390000       1.18450000
H        0.90560000       1.87760000       0.45430000
H       -0.10650000       1.88200000      -1.01840000
H       -0.84360000       1.85630000       0.60920000
H       -0.15310000      -2.45950000      -2.13780000
H       -0.02610000      -4.62760000      -1.00390000
H        0.22610000      -2.44800000       2.13690000
