16
Properties=species:S:1:pos:R:3 gdb_22732=T pbc="F F F"
O       -0.09310000       1.35430000       0.07100000
N        0.04900000      -0.04110000       0.13440000
C       -1.07220000      -0.61890000       0.05450000
C       -2.51690000      -0.18610000      -0.16780000
C       -2.80550000      -1.65680000      -0.49940000
C       -4.01030000      -2.42780000      -0.77500000
O       -3.11790000      -2.03400000      -1.83730000
C       -1.42390000      -2.11440000       0.03100000
O       -0.72170000      -3.02410000      -0.75350000
H        0.82150000       1.65460000       0.11500000
H       -3.01240000       0.18820000       0.73370000
H       -2.68220000       0.51980000      -0.98530000
H       -4.02660000      -3.49450000      -0.55700000
H       -4.98160000      -1.93630000      -0.78820000
H       -1.47410000      -2.51790000       1.05020000
H       -1.02280000      -2.89250000      -1.66290000
