17
Properties=species:S:1:pos:R:3 gdb_43145=T pbc="F F F"
O        0.00340000       0.05120000       0.09930000
C       -0.01490000       1.24160000      -0.00850000
C       -1.19210000       2.23380000      -0.00550000
C       -0.81110000       3.04660000       1.26640000
C        0.76550000       3.06880000       1.24430000
C        1.13340000       2.26670000      -0.03820000
C        0.67780000       3.12840000      -1.21190000
O       -0.06280000       2.42680000      -2.22210000
C       -0.79420000       3.10760000      -1.19120000
H       -2.18810000       1.79570000      -0.01830000
H       -1.23540000       4.05390000       1.24120000
H       -1.18730000       2.55330000       2.16590000
H        1.16030000       4.08770000       1.20760000
H        1.18050000       2.58670000       2.13260000
H        2.14050000       1.85690000      -0.07920000
H        1.26240000       3.97860000      -1.55050000
H       -1.41200000       3.94080000      -1.51290000
