14
Properties=species:S:1:pos:R:3 gdb_4663=T pbc="F F F"
C       -0.03160000       1.49540000       0.04560000
C        0.00140000       0.00600000      -0.02820000
N       -0.03030000      -0.71620000      -1.11830000
C        0.02080000      -2.03520000      -0.70360000
C        0.00830000      -3.19140000      -1.59830000
O       -0.04800000      -3.15790000      -2.80470000
C        0.08470000      -2.09590000       0.67220000
N        0.07190000      -0.79600000       1.09230000
H        0.86610000       1.89810000       0.52810000
H       -0.08660000       1.89020000      -0.96920000
H       -0.90130000       1.85490000       0.60710000
H        0.05720000      -4.16200000      -1.04990000
H        0.13590000      -2.92520000       1.35890000
H        0.10770000      -0.48280000       2.04880000
