20
Properties=species:S:1:pos:R:3 gdb_6990=T pbc="F F F"
C       -0.45040000       1.40840000      -0.00830000
C        0.08620000      -0.00970000       0.01200000
O        1.07190000      -0.16460000      -0.99690000
C        1.69200000      -1.42780000      -0.77100000
C        1.63390000      -1.67950000       0.75540000
C        0.78940000      -0.49280000       1.30480000
C        1.67680000       0.57810000       1.94080000
O       -0.23550000      -0.90060000       2.20470000
H        0.35690000       2.14000000       0.08140000
H       -0.97780000       1.59960000      -0.94670000
H       -1.15310000       1.54920000       0.81810000
H       -0.74800000      -0.71370000      -0.15720000
H        1.15430000      -2.21630000      -1.31830000
H        2.70900000      -1.37390000      -1.16870000
H        1.11970000      -2.61480000       0.98810000
H        2.62900000      -1.71800000       1.20650000
H        2.39610000       0.96490000       1.21280000
H        1.07870000       1.41050000       2.32080000
H        2.24620000       0.15410000       2.77710000
H        0.16870000      -1.07650000       3.06030000
