19
Properties=species:S:1:pos:R:3 gdb_76832=T pbc="F F F"
C        0.52260000       1.53640000       0.27060000
C        0.19540000       0.07020000       0.02430000
C        0.72740000      -0.65800000      -1.27200000
C        1.60620000       0.09280000      -2.26390000
C        1.39940000      -1.75000000      -0.36390000
C        0.91580000      -0.98600000       0.89160000
O        2.30120000      -0.62140000       1.20210000
C        2.78240000      -1.34300000       0.12800000
O        3.91880000      -1.49350000      -0.18660000
H        1.60030000       1.71360000       0.27680000
H        0.07340000       2.17050000      -0.50030000
H        0.12850000       1.86100000       1.23950000
H       -0.88600000      -0.08250000       0.10550000
H       -0.10980000      -1.11060000      -1.81030000
H        2.47620000       0.55170000      -1.78620000
H        1.97810000      -0.58540000      -3.03880000
H        1.03760000       0.88630000      -2.76000000
H        1.22980000      -2.80100000      -0.58720000
H        0.42930000      -1.42630000       1.76080000
