16
Properties=species:S:1:pos:R:3 gdb_28352=T pbc="F F F"
C        0.07950000       1.49000000       0.02520000
C       -0.05980000       0.00640000      -0.00610000
C       -1.19660000      -0.70140000      -0.17720000
N       -1.21640000      -2.07800000      -0.19020000
C       -0.10260000      -2.71780000      -0.03230000
C       -0.06340000      -4.21470000      -0.03760000
C        1.19020000      -2.02880000       0.16150000
O        2.25940000      -2.55500000       0.31370000
O        1.11940000      -0.64300000       0.16130000
H        0.75850000       1.82990000      -0.76430000
H       -0.89170000       1.96810000      -0.11320000
H        0.50350000       1.81710000       0.98070000
H       -2.14520000      -0.19730000      -0.31190000
H       -1.06910000      -4.60840000      -0.18740000
H        0.60100000      -4.57990000      -0.82830000
H        0.34790000      -4.59260000       0.90470000
