16
Properties=species:S:1:pos:R:3 gdb_93123=T pbc="F F F"
O       -0.06760000       1.41780000       0.03750000
C        0.02120000       0.00980000       0.02350000
C        0.78920000      -0.57310000       1.21460000
N        0.66220000      -2.02090000       1.36060000
C       -0.34990000      -2.57620000       0.82790000
N       -1.33770000      -1.98060000       0.05890000
C       -1.42310000      -0.53010000       0.02740000
C       -2.20700000       0.00910000       1.15880000
N       -2.85140000       0.37850000       2.04380000
H        0.80960000       1.77860000       0.20160000
H        0.47530000      -0.35260000      -0.91120000
H        1.85460000      -0.33010000       1.11270000
H        0.44300000      -0.08290000       2.13490000
H       -0.47760000      -3.65450000       0.92780000
H       -2.20050000      -2.49090000      -0.04990000
H       -1.91740000      -0.21170000      -0.89630000
