23
Properties=species:S:1:pos:R:3 gdb_76375=T pbc="F F F"
C       -0.13730000       0.83980000      -1.95940000
C        0.04880000      -0.27630000      -0.95540000
C        1.34060000      -0.58300000      -0.26780000
C        2.62550000       0.18420000      -0.48850000
C        0.16960000      -0.01840000       0.55860000
C        0.22100000       1.40000000       1.09590000
C       -0.52340000      -1.06100000       1.39380000
C       -1.13360000      -0.64030000       2.72040000
O       -0.59860000      -2.21660000       1.02260000
H        0.49310000       1.71000000      -1.76340000
H        0.10800000       0.48230000      -2.96570000
H       -1.17770000       1.18190000      -1.97780000
H       -0.54900000      -1.15920000      -1.16530000
H        1.48910000      -1.64310000      -0.08040000
H        2.46670000       1.24030000      -0.71780000
H        3.27190000       0.13030000       0.39420000
H        3.18040000      -0.24960000      -1.32790000
H        0.74320000       2.07460000       0.41650000
H       -0.78310000       1.81160000       1.24480000
H        0.74360000       1.44830000       2.05730000
H       -1.88820000       0.14020000       2.57430000
H       -1.59240000      -1.51010000       3.19110000
H       -0.37150000      -0.22070000       3.38620000
