14
Properties=species:S:1:pos:R:3 gdb_61162=T pbc="F F F"
O       -0.11370000       1.45100000      -0.14480000
C       -0.00650000       0.07070000       0.02290000
C        0.83220000      -0.56840000      -1.12100000
C        0.25330000      -0.27580000      -2.42830000
N       -0.20630000      -0.06430000      -3.46650000
C        0.61690000      -0.24580000       1.37780000
O        1.05070000       0.63420000       2.08660000
C        0.67720000      -1.69230000       1.87470000
O        0.31130000      -2.63150000       1.21870000
H        0.36620000       1.86160000       0.59050000
H       -1.00450000      -0.39200000       0.00050000
H        1.85200000      -0.16950000      -1.08760000
H        0.87800000      -1.65260000      -0.98490000
H        1.09130000      -1.77930000       2.89930000
