17
Properties=species:S:1:pos:R:3 gdb_77319=T pbc="F F F"
C       -0.19910000       1.53820000       0.03360000
C        0.08210000       0.04040000       0.01440000
C        0.94550000      -0.47440000      -1.16400000
C        1.54250000      -1.76870000      -0.56860000
O        1.70320000      -1.48430000       0.82320000
C        0.87740000      -0.46050000       1.20820000
N        0.79510000      -0.00330000       2.37860000
C        0.21770000      -0.68470000      -2.40720000
N       -0.36540000      -0.85890000      -3.38970000
H        0.73310000       2.11090000       0.00780000
H       -0.81200000       1.82960000      -0.82380000
H       -0.72570000       1.80150000       0.95300000
H       -0.86820000      -0.51000000       0.00490000
H        1.75450000       0.24190000      -1.35080000
H        0.86040000      -2.61640000      -0.70100000
H        2.51850000      -2.02600000      -0.98330000
H        1.41070000      -0.51010000       3.01650000
