15
Properties=species:S:1:pos:R:3 gdb_19240=T pbc="F F F"
N       -0.13310000       1.46730000       0.22430000
C       -0.01970000       0.05900000       0.00800000
C       -1.34190000      -0.70980000       0.03190000
N       -2.11900000      -0.19450000      -1.11940000
C       -1.12890000      -1.26970000      -1.32890000
C        0.23470000      -0.58230000      -1.46800000
C        0.42650000       0.34670000      -2.56420000
N        0.59930000       1.12170000      -3.40520000
H        0.74250000       1.94900000       0.05040000
H       -0.83250000       1.85280000      -0.40340000
H        0.71770000      -0.36890000       0.69110000
H       -1.83860000      -1.13450000       0.89470000
H       -3.04280000      -0.62240000      -1.09060000
H       -1.41200000      -2.22860000      -1.74240000
H        1.06160000      -1.29550000      -1.43330000
