15
Properties=species:S:1:pos:R:3 gdb_2851=T pbc="F F F"
O       -0.11590000       1.41530000      -0.44320000
C        0.03230000       0.10230000       0.07720000
C       -1.33820000      -0.52900000       0.07180000
C       -1.85530000      -1.26530000      -1.11410000
C       -1.55140000      -2.04110000       0.16440000
C       -0.41720000      -2.99170000       0.17020000
O       -0.37760000      -3.99830000       0.83470000
H        0.72740000       1.86950000      -0.35520000
H        0.73490000      -0.48760000      -0.53070000
H        0.42640000       0.12300000       1.10540000
H       -2.06500000       0.04810000       0.63620000
H       -2.89640000      -1.16410000      -1.39680000
H       -1.17460000      -1.41450000      -1.94700000
H       -2.38920000      -2.37150000       0.76870000
H        0.42240000      -2.72750000      -0.51380000
