19
Properties=species:S:1:pos:R:3 gdb_37553=T pbc="F F F"
C       -0.05870000       1.69160000       0.05010000
C        1.43660000       1.32710000      -0.01310000
C        1.25480000       0.09600000       0.97700000
C       -0.04400000       0.15140000       0.06100000
C        1.18790000       0.05950000      -0.93900000
C        1.48910000      -0.40930000      -2.35830000
C        2.46950000      -1.62920000      -2.12550000
C        2.64890000      -1.75910000      -0.60350000
C        1.93080000      -0.81750000      -0.01130000
H       -0.40470000       2.18500000       0.96400000
H       -0.48670000       2.17500000      -0.83310000
H        2.31400000       1.97530000      -0.04130000
H        1.27550000       0.13850000       2.06570000
H       -0.87320000      -0.55570000       0.11820000
H        0.58790000      -0.72250000      -2.89280000
H        1.96330000       0.36980000      -2.96170000
H        2.06080000      -2.55070000      -2.55990000
H        3.43090000      -1.46250000      -2.62840000
H        3.27690000      -2.52190000      -0.15940000
