17
Properties=species:S:1:pos:R:3 gdb_49919=T pbc="F F F"
O       -0.16750000       0.01430000       0.07130000
C        0.00470000       1.19650000      -0.05900000
C        1.35040000       1.89910000       0.02770000
C        1.58860000       2.85020000      -1.18000000
C        2.15760000       4.17800000      -0.60290000
C        1.49270000       5.39770000      -1.22110000
O        2.07440000       6.34480000      -1.67820000
C        1.84730000       4.05710000       0.87530000
C        1.41720000       2.84280000       1.21130000
H       -0.84820000       1.89060000      -0.25170000
H        2.11360000       1.11620000       0.10780000
H        2.24430000       2.40980000      -1.93240000
H        0.62840000       3.05380000      -1.67340000
H        3.23590000       4.28490000      -0.76890000
H        0.37730000       5.35040000      -1.20990000
H        2.01530000       4.87510000       1.56690000
H        1.18080000       2.51910000       2.21880000
