16
Properties=species:S:1:pos:R:3 gdb_126742=T pbc="F F F"
C       -0.17410000       1.50770000       0.09980000
C        0.12460000       0.01450000      -0.02500000
N        0.74670000      -0.52790000       1.17450000
C        0.25460000      -1.39950000       2.08100000
N        1.12860000      -1.61930000       3.04110000
C        2.18290000      -0.82900000       2.66810000
N        1.98890000      -0.14810000       1.53680000
C        3.38800000      -0.73500000       3.41120000
C        4.40520000      -0.66110000       4.04750000
H        0.74650000       2.06120000       0.29660000
H       -0.61380000       1.87770000      -0.83080000
H       -0.87660000       1.69990000       0.91590000
H       -0.79060000      -0.56040000      -0.19300000
H        0.79910000      -0.17550000      -0.86500000
H       -0.72750000      -1.84070000       1.99510000
H        5.30390000      -0.59670000       4.60950000
