16
Properties=species:S:1:pos:R:3 gdb_101997=T pbc="F F F"
C       -0.10800000       1.52940000       0.03090000
N        0.09550000       0.08440000      -0.08440000
C        0.70770000      -0.51090000       1.08710000
C       -0.23960000      -0.65620000       2.31120000
O       -1.41280000      -0.41430000       2.24730000
C        1.25670000      -1.84070000       0.82910000
C        1.67110000      -2.96590000       0.67990000
C        2.17190000      -4.29640000       0.44310000
O        2.70820000      -4.98210000       1.28240000
H        0.86630000       2.02700000       0.09280000
H       -0.60190000       1.88570000      -0.87660000
H       -0.71300000       1.83750000       0.89600000
H       -0.79790000      -0.37140000      -0.24330000
H        1.53700000       0.13440000       1.41750000
H        0.24710000      -1.01860000       3.24140000
H        2.02500000      -4.65530000      -0.59540000
