19
Properties=species:S:1:pos:R:3 gdb_89097=T pbc="F F F"
C       -0.34550000       1.39090000       0.19720000
N        0.03130000      -0.01460000       0.14780000
C        1.38730000      -0.35360000      -0.25150000
C        0.93220000      -0.56690000       1.15490000
C        1.52330000       0.25510000       2.26810000
O        0.53100000       0.41170000       3.27680000
C        1.01840000       1.09290000       4.40370000
C       -0.05420000       1.22090000       5.39490000
N       -0.87720000       1.33940000       6.19550000
H        0.48880000       2.08400000       0.39090000
H       -0.78540000       1.66570000      -0.76640000
H       -1.09930000       1.53210000       0.97650000
H        1.49910000      -1.19570000      -0.92920000
H        2.08810000       0.46390000      -0.42600000
H        0.65820000      -1.57240000       1.46950000
H        2.40230000      -0.26600000       2.68240000
H        1.86340000       1.24000000       1.91570000
H        1.86360000       0.55830000       4.86850000
H        1.37860000       2.10310000       4.14680000
