12
Properties=species:S:1:pos:R:3 gdb_21474=T pbc="F F F"
N       -0.12010000       1.29890000       0.12280000
C       -0.02300000       0.05580000      -0.02830000
O       -1.16790000      -0.69310000       0.09770000
C       -1.06860000      -2.03810000       0.06730000
N        0.06920000      -2.68870000       0.13040000
O       -0.28980000      -4.03430000       0.07270000
C       -1.62470000      -4.12760000      -0.01210000
C       -2.19660000      -2.89960000      -0.02130000
H        0.78840000       1.73730000      -0.01760000
H        0.85900000      -0.54150000      -0.26390000
H       -2.02150000      -5.12990000      -0.05930000
H       -3.23580000      -2.62780000      -0.08200000
