15
Properties=species:S:1:pos:R:3 gdb_27064=T pbc="F F F"
C       -0.09420000       1.40080000       0.10390000
C       -0.09240000      -0.07920000       0.01100000
C       -1.04560000      -0.99180000      -0.32780000
O       -2.32530000      -0.67170000      -0.73230000
C       -3.35580000      -1.15730000       0.01350000
O       -4.49350000      -0.97660000      -0.28720000
C       -0.45520000      -2.29570000      -0.26220000
C        0.82830000      -2.07840000       0.12090000
O        1.06300000      -0.74900000       0.28510000
H        0.62990000       1.84730000      -0.58660000
H       -1.08770000       1.77570000      -0.15100000
H        0.15810000       1.74150000       1.11410000
H       -3.00360000      -1.71570000       0.89930000
H       -0.92290000      -3.24140000      -0.48430000
H        1.66550000      -2.72900000       0.31020000
