23
Properties=species:S:1:pos:R:3 gdb_59558=T pbc="F F F"
C       -0.05100000       1.51290000       0.03140000
C        0.04670000      -0.01840000      -0.03430000
C        0.77730000      -0.44090000      -1.31790000
C        0.72070000      -0.58670000       1.22540000
C       -0.06710000      -0.33830000       2.56050000
C       -0.24500000      -1.81180000       2.97470000
C        1.15740000      -2.42400000       2.77280000
C        0.72800000      -2.13550000       1.31880000
O       -0.65110000      -2.43310000       1.71230000
H        0.94770000       1.96630000       0.05830000
H       -0.56930000       1.90970000      -0.84770000
H       -0.59300000       1.85370000       0.91850000
H       -0.97030000      -0.43130000      -0.06490000
H        1.81700000      -0.09090000      -1.31160000
H        0.79080000      -1.52660000      -1.44980000
H        0.29130000      -0.01020000      -2.19950000
H        1.74470000      -0.19680000       1.28770000
H        0.48590000       0.25160000       3.29620000
H       -1.03530000       0.13810000       2.38920000
H       -0.89360000      -2.05170000       3.81730000
H        2.03090000      -1.91240000       3.18650000
H        1.17480000      -3.49250000       2.98920000
H        1.08100000      -2.71850000       0.46910000
