17
Properties=species:S:1:pos:R:3 gdb_51807=T pbc="F F F"
O       -0.01850000      -0.01500000      -0.13750000
C       -0.00160000       1.17800000      -0.16230000
O        1.07200000       1.90210000       0.20500000
C        0.98530000       3.33030000       0.15180000
C        1.13040000       3.95760000       1.55380000
C        1.75900000       5.34900000       1.31150000
C        2.56310000       5.15920000       0.03690000
O        3.36230000       3.97060000       0.04800000
C        2.11590000       3.94130000      -0.65190000
H       -0.85390000       1.80850000      -0.48670000
H        0.03220000       3.61410000      -0.31780000
H        0.17930000       4.00180000       2.08820000
H        1.81290000       3.32720000       2.12650000
H        0.99230000       6.11400000       1.14080000
H        2.37470000       5.68300000       2.15160000
H        2.99050000       6.00600000      -0.49340000
H        2.17550000       3.79240000      -1.72660000
