14
Properties=species:S:1:pos:R:3 gdb_28164=T pbc="F F F"
C        0.09590000       1.43490000       0.05160000
C       -0.07550000      -0.03790000      -0.00140000
C       -1.14620000      -0.85010000      -0.24800000
C       -0.64000000      -2.19350000      -0.14910000
C        0.67110000      -2.04300000       0.14430000
O        1.29790000      -3.22120000       0.27180000
C        0.24370000      -4.10200000       0.02820000
N       -0.90480000      -3.56020000      -0.22190000
O        1.09260000      -0.78560000       0.25090000
H        0.82530000       1.78480000      -0.68790000
H       -0.86080000       1.91900000      -0.15690000
H        0.44070000       1.76760000       1.03730000
H       -2.14520000      -0.50800000      -0.46690000
H        0.50350000      -5.14660000       0.07550000
