15
Properties=species:S:1:pos:R:3 gdb_27494=T pbc="F F F"
N        0.07540000       1.38290000       0.14690000
C       -0.04020000       0.00610000       0.03620000
C       -1.20230000      -0.68570000       0.02690000
C       -1.20760000      -2.13140000      -0.00460000
N       -2.29220000      -2.81280000      -0.00930000
N        0.08510000      -2.70270000      -0.04620000
C        1.29460000      -2.04560000      -0.01920000
O        2.37090000      -2.60330000       0.00040000
N        1.17300000      -0.66060000      -0.01660000
H        0.78340000       1.79810000      -0.44540000
H       -0.80560000       1.86900000       0.05860000
H       -2.15840000      -0.18340000       0.02630000
H       -2.10690000      -3.81590000      -0.04830000
H        0.16630000      -3.70890000      -0.05400000
H        2.03340000      -0.16600000       0.16080000
