15
Properties=species:S:1:pos:R:3 gdb_9200=T pbc="F F F"
O        0.05440000       1.40810000       0.00900000
C       -0.00890000       0.00900000       0.00220000
C       -1.46730000      -0.43650000       0.01370000
O       -2.38650000       0.34230000       0.02650000
C       -1.68420000      -1.94750000       0.00790000
C       -3.18020000      -2.29820000       0.02030000
C       -3.40370000      -3.74090000       0.01470000
N       -3.56230000      -4.88550000       0.01010000
H        0.98060000       1.66700000       0.00140000
H        0.46740000      -0.43910000      -0.88780000
H        0.48420000      -0.44840000       0.87830000
H       -1.19390000      -2.37920000      -0.87310000
H       -1.17720000      -2.38840000       0.87470000
H       -3.65960000      -1.86020000       0.90110000
H       -3.67630000      -1.85090000      -0.84640000
