19
Properties=species:S:1:pos:R:3 gdb_72940=T pbc="F F F"
C        0.24450000       1.63530000       0.05210000
C        0.05130000       0.14200000       0.05810000
O       -1.32210000      -0.24590000       0.30510000
C       -0.93050000      -1.12890000       1.39270000
C        0.55830000      -0.85770000       1.14340000
C        1.21310000      -1.71490000       0.01540000
O        0.37490000      -2.74650000      -0.53930000
C       -0.04570000      -1.88010000      -1.63110000
C        0.75580000      -0.69930000      -1.06400000
H        1.30140000       1.89320000      -0.07260000
H       -0.31470000       2.08190000      -0.77820000
H       -0.11780000       2.07930000       0.98390000
H       -1.30560000      -0.75620000       2.35300000
H       -1.26500000      -2.15670000       1.22940000
H        1.19220000      -0.57460000       1.98380000
H        2.24180000      -2.04950000       0.17450000
H        0.32410000      -2.25840000      -2.59130000
H       -1.13120000      -1.75570000      -1.66440000
H        1.43290000      -0.16050000      -1.72670000
