16
Properties=species:S:1:pos:R:3 gdb_17300=T pbc="F F F"
O       -0.04250000       1.42490000       0.00200000
C        0.00190000       0.02990000      -0.02010000
C        0.42930000      -0.71690000      -1.31930000
C       -0.90910000      -1.52330000      -1.28430000
C       -1.34300000      -0.75510000      -0.00030000
C       -0.91330000      -1.37050000       1.35460000
O        0.33130000      -2.06150000       1.15740000
C        0.36790000      -0.64480000       1.34030000
H        0.86350000       1.75540000       0.01400000
H        0.49630000      -0.02620000      -2.16360000
H        1.34440000      -1.30850000      -1.25440000
H       -1.55940000      -1.33750000      -2.14120000
H       -0.79000000      -2.59880000      -1.14960000
H       -2.28820000      -0.21380000       0.00670000
H       -1.53110000      -1.71210000       2.17760000
H        0.98750000      -0.25360000       2.14190000
