20
Properties=species:S:1:pos:R:3 gdb_89231=T pbc="F F F"
C       -0.01150000       1.49740000      -0.01100000
C        0.09250000      -0.00900000       0.03120000
C        0.46620000      -0.69100000      -1.28610000
C        0.35420000      -2.17390000      -0.86070000
O        1.58340000      -2.88440000      -0.84600000
C       -0.08990000      -1.96290000       0.57410000
C        0.69740000      -0.80290000       1.23350000
C       -0.60780000      -0.51130000       1.98360000
N       -1.13210000      -0.82220000       0.57550000
H        0.94060000       1.92720000      -0.34130000
H       -0.78050000       1.80090000      -0.72940000
H       -0.25940000       1.94360000       0.95460000
H       -0.23020000      -0.41750000      -2.08500000
H        1.48370000      -0.44410000      -1.60520000
H       -0.40650000      -2.71630000      -1.43840000
H        1.85430000      -3.03190000      -1.75710000
H       -0.36570000      -2.84040000       1.16050000
H        1.72980000      -0.80310000       1.59990000
H       -0.93650000      -1.23840000       2.73160000
H       -0.81530000       0.50340000       2.32790000
