17
Properties=species:S:1:pos:R:3 gdb_22583=T pbc="F F F"
C       -0.06940000       1.49930000       0.03270000
C       -0.06130000       0.00270000      -0.07600000
N       -0.01680000      -0.58650000      -1.19710000
C        0.02190000      -2.04210000      -1.24400000
C        0.34350000      -2.68220000       0.07820000
C       -0.22130000      -1.97980000       1.28000000
O       -0.09870000      -0.55530000       1.16790000
N        1.05640000      -3.73860000       0.09480000
O        1.23800000      -4.24380000       1.39330000
H        0.78100000       1.83830000       0.63270000
H       -0.01590000       1.93740000      -0.96280000
H       -0.97840000       1.83890000       0.53930000
H       -0.95750000      -2.39950000      -1.59770000
H        0.75060000      -2.36160000      -1.99490000
H       -1.28530000      -2.22970000       1.39740000
H        0.30290000      -2.27040000       2.18970000
H        1.83650000      -4.98260000       1.24040000
