23
Properties=species:S:1:pos:R:3 gdb_76886=T pbc="F F F"
C       -0.22550000       1.57810000      -0.04360000
C        0.04420000       0.07250000      -0.01870000
C        0.77100000      -0.50350000      -1.26710000
C        2.16990000       0.11900000      -1.38910000
O        2.89120000      -0.41890000      -0.26300000
C        1.98260000      -1.31520000       0.39940000
C        1.17230000      -1.90540000      -0.76050000
C        0.93260000      -0.48190000       1.17170000
C        1.55600000       0.54740000       2.11440000
H        0.68980000       2.17610000      -0.04770000
H       -0.80280000       1.84860000      -0.93480000
H       -0.81050000       1.88550000       0.82900000
H       -0.93220000      -0.42390000       0.03280000
H        0.18700000      -0.45610000      -2.18840000
H        2.67020000      -0.17990000      -2.32060000
H        2.17400000       1.21310000      -1.34010000
H        2.57470000      -1.99860000       1.01110000
H        0.32220000      -2.51300000      -0.43990000
H        1.78900000      -2.47250000      -1.46250000
H        0.32480000      -1.16970000       1.77230000
H        2.25700000       1.19750000       1.58600000
H        0.79470000       1.17020000       2.59370000
H        2.11530000       0.04170000       2.90930000
