17
Properties=species:S:1:pos:R:3 gdb_43673=T pbc="F F F"
O        0.16350000       0.71320000      -1.35100000
C       -0.04280000       1.42160000      -0.42110000
C       -1.21570000       1.80180000       0.48410000
C       -0.18160000       2.71500000       1.16800000
C        0.20300000       2.41700000       2.60490000
C        1.45880000       3.14540000       3.02830000
C        1.41190000       4.44770000       3.70700000
O        1.68730000       3.24820000       4.43260000
O        0.84830000       2.24850000       0.21900000
H       -2.04050000       2.29500000      -0.03200000
H       -1.59970000       0.97820000       1.08920000
H       -0.34620000       3.78440000       1.00870000
H       -0.62310000       2.70710000       3.26450000
H        0.35030000       1.33600000       2.72120000
H        2.34760000       2.90650000       2.44460000
H        2.24650000       5.14030000       3.61130000
H        0.44820000       4.91000000       3.91990000
