17
Properties=species:S:1:pos:R:3 gdb_64731=T pbc="F F F"
C       -0.10120000       1.67900000      -0.13520000
C        0.04930000       0.16650000      -0.05610000
C       -1.30810000      -0.56800000       0.01570000
C       -2.14900000      -0.13910000       1.13090000
N       -2.81750000       0.21040000       2.00590000
C        0.95450000      -0.44550000      -1.16930000
N        2.02900000      -1.15180000      -0.45820000
C        1.83410000      -0.92080000       0.77170000
O        0.78030000      -0.16400000       1.16190000
H        0.88450000       2.15120000      -0.14160000
H       -0.62320000       1.96000000      -1.05580000
H       -0.66750000       2.06460000       0.71630000
H       -1.85420000      -0.40450000      -0.92040000
H       -1.12820000      -1.64490000       0.10090000
H        0.40880000      -1.14100000      -1.81640000
H        1.38290000       0.32970000      -1.81400000
H        2.45350000      -1.27850000       1.58660000
