18
Properties=species:S:1:pos:R:3 gdb_9149=T pbc="F F F"
C        0.04930000       1.48820000       0.13940000
C       -0.03660000      -0.02410000      -0.13850000
C       -1.40140000      -0.53670000      -0.07530000
C       -2.53830000      -0.93590000      -0.03840000
C       -3.90610000      -1.43000000       0.07710000
O       -3.96450000      -2.85700000       0.23190000
C       -4.66170000      -0.77550000       1.24900000
O       -5.95100000      -1.32800000       1.36530000
H        1.08810000       1.82570000       0.08200000
H       -0.53730000       2.05120000      -0.59140000
H       -0.33600000       1.72330000       1.13510000
H        0.38860000      -0.24170000      -1.12640000
H        0.58680000      -0.56540000       0.58470000
H       -4.46840000      -1.22960000      -0.84250000
H       -3.25650000      -3.10630000       0.83720000
H       -4.06690000      -0.91030000       2.16880000
H       -4.76870000       0.29960000       1.07450000
H       -5.82840000      -2.28200000       1.26880000
