16
Properties=species:S:1:pos:R:3 gdb_12318=T pbc="F F F"
C        0.01720000       1.49730000      -0.10810000
C       -0.03310000      -0.00220000      -0.04640000
C       -1.15070000      -0.71690000       0.13210000
C       -1.12000000      -2.21680000       0.18660000
C        0.09300000      -2.71360000      -0.58580000
O        1.29740000      -2.04960000      -0.18050000
C        1.29010000      -0.69400000      -0.08290000
O        2.33650000      -0.10690000       0.02580000
H        0.66150000       1.89400000       0.68190000
H        0.44940000       1.83570000      -1.05580000
H       -0.98250000       1.92710000      -0.00670000
H       -2.10520000      -0.21150000       0.25970000
H       -1.08560000      -2.56150000       1.22990000
H       -2.02900000      -2.64430000      -0.25140000
H        0.28010000      -3.77710000      -0.42370000
H       -0.05650000      -2.54830000      -1.66100000
