21
Properties=species:S:1:pos:R:3 gdb_52454=T pbc="F F F"
O       -0.68380000       0.77510000       0.79140000
C        0.03390000       0.96690000      -0.15550000
C        1.29770000       1.79590000      -0.13650000
C        1.25520000       2.92970000      -1.17590000
C        2.56900000       3.71500000      -1.25370000
C        2.52710000       4.85240000      -2.28010000
C        3.84440000       5.64510000      -2.34730000
C        3.81840000       6.68840000      -3.44070000
O        4.00680000       7.86620000      -3.28000000
H       -0.20750000       0.52850000      -1.15360000
H        1.44760000       2.18210000       0.87600000
H        2.13610000       1.12400000      -0.37310000
H        1.02120000       2.51040000      -2.16390000
H        0.43300000       3.61360000      -0.93010000
H        2.80720000       4.12580000      -0.26400000
H        3.38930000       3.02860000      -1.50420000
H        2.29790000       4.44080000      -3.27240000
H        1.70600000       5.53780000      -2.03480000
H        4.06660000       6.13960000      -1.39710000
H        4.66860000       4.95200000      -2.57240000
H        3.59540000       6.27860000      -4.45510000
