15
Properties=species:S:1:pos:R:3 gdb_44527=T pbc="F F F"
O        0.07790000       0.02350000       0.06050000
C        0.01370000       1.22590000       0.02180000
C       -1.30600000       2.06600000       0.05140000
C       -0.82850000       3.43210000      -0.43290000
C       -0.86060000       4.83610000       0.23050000
O       -0.20510000       4.77570000       1.49660000
C        0.62440000       4.85890000       0.31540000
C        0.65830000       3.41390000      -0.12740000
C        1.16440000       2.19540000       0.05440000
H       -2.09290000       1.58910000      -0.53490000
H       -1.62880000       2.10820000       1.09830000
H       -0.99100000       3.56730000      -1.50980000
H       -1.55930000       5.64920000       0.07220000
H        1.34540000       5.66390000       0.26490000
H        2.17100000       1.88950000       0.30620000
