23
Properties=species:S:1:pos:R:3 gdb_121139=T pbc="F F F"
C       -0.28490000       1.50630000      -0.09750000
C        0.17540000       0.04670000      -0.09590000
C        0.43730000      -0.49790000       1.31490000
C        0.91960000      -1.93440000       1.29430000
O        2.21560000      -2.09140000       0.66180000
C        2.63630000      -3.03290000       1.66760000
C        1.42750000      -2.66070000       2.56790000
C        1.78050000      -1.78940000       3.76480000
O        0.55580000      -3.71200000       2.92840000
H        0.46730000       2.15940000       0.35920000
H       -0.46260000       1.86650000      -1.11560000
H       -1.21590000       1.63070000       0.46720000
H       -0.58000000      -0.57920000      -0.58880000
H        1.09250000      -0.05670000      -0.68680000
H        1.17970000       0.13370000       1.81740000
H       -0.48440000      -0.44930000       1.91120000
H        0.17390000      -2.57500000       0.79870000
H        2.58900000      -4.07130000       1.31370000
H        3.64270000      -2.81200000       2.04260000
H        2.44030000      -0.96590000       3.47920000
H        0.87940000      -1.37340000       4.22520000
H        2.30920000      -2.38440000       4.52080000
H        0.84580000      -4.07430000       3.77220000
