17
Properties=species:S:1:pos:R:3 gdb_105767=T pbc="F F F"
N        0.04860000       1.44560000      -0.04500000
C        0.05490000      -0.00780000      -0.03200000
C        0.83310000      -0.50990000       1.18160000
O        0.17590000      -0.10880000       2.35740000
C        0.57670000      -1.04230000       3.35940000
C        0.81520000      -2.34390000       2.56170000
O        0.85130000      -1.91710000       1.19480000
C        2.24290000       0.00200000       1.19290000
N        3.34710000       0.33820000       1.23500000
H       -0.31770000       1.79370000      -0.92290000
H       -0.54380000       1.80020000       0.69810000
H       -0.93070000      -0.49500000       0.02580000
H        0.56070000      -0.37650000      -0.92910000
H        1.49250000      -0.70100000       3.85690000
H       -0.22820000      -1.11540000       4.09240000
H        1.75870000      -2.82720000       2.83430000
H       -0.00140000      -3.06370000       2.66830000
