16
Properties=species:S:1:pos:R:3 gdb_98101=T pbc="F F F"
C       -0.03840000       1.46420000       0.05990000
O        0.28190000       0.06410000       0.06800000
C        0.78120000      -0.41200000      -1.06970000
O        0.97840000       0.23020000      -2.07230000
C        1.09450000      -1.91850000      -0.96500000
O        0.86200000      -2.54910000       0.04070000
C        1.69630000      -2.52070000      -2.18320000
C        2.92630000      -3.35750000      -1.95570000
N        1.66040000      -3.98840000      -2.28420000
H        0.85710000       2.05870000      -0.13740000
H       -0.78310000       1.68000000      -0.71010000
H       -0.43430000       1.68090000       1.05110000
H        1.59560000      -1.96400000      -3.10560000
H        3.68080000      -3.37680000      -2.73630000
H        3.29620000      -3.42300000      -0.93610000
H        1.23650000      -4.33660000      -1.42300000
