21
Properties=species:S:1:pos:R:3 gdb_120921=T pbc="F F F"
O       -0.91430000       0.57980000       1.10240000
C       -0.26370000       0.08750000      -0.07390000
C       -1.25190000      -0.81000000      -0.81020000
C       -1.45850000      -2.21550000      -0.19350000
C       -1.14840000      -2.53270000       1.31880000
C       -2.57370000      -3.06380000       1.49740000
C       -3.57640000      -2.00710000       1.16110000
O       -3.50420000      -0.65370000       1.48570000
C       -2.89760000      -2.70760000       0.01690000
H       -0.27250000       1.02130000       1.66570000
H        0.03340000       0.93060000      -0.71390000
H        0.64610000      -0.47050000       0.19250000
H       -2.20580000      -0.27440000      -0.85250000
H       -0.90760000      -0.91370000      -1.84530000
H       -0.90880000      -2.94320000      -0.79670000
H       -0.38690000      -3.30890000       1.41760000
H       -0.87000000      -1.69410000       1.96160000
H       -2.83000000      -3.95390000       2.06120000
H       -4.60350000      -2.33820000       1.29370000
H       -2.59080000      -0.33200000       1.48260000
H       -3.46130000      -3.27280000      -0.71860000
