14
Properties=species:S:1:pos:R:3 gdb_21194=T pbc="F F F"
C       -0.00320000       1.36780000       0.17650000
N       -0.03100000      -0.05040000      -0.12740000
C       -1.19210000      -0.76420000      -0.01500000
N       -1.27430000      -2.08640000       0.06180000
C       -2.62260000      -2.28700000       0.09960000
O       -3.14800000      -3.51830000       0.17840000
N       -3.38750000      -1.21900000       0.05990000
N       -2.42720000      -0.22320000      -0.00650000
H        1.01930000       1.73230000       0.06550000
H       -0.62260000       1.92160000      -0.53870000
H       -0.35120000       1.60430000       1.19310000
H        0.77800000      -0.58750000       0.14340000
H       -2.40300000      -4.13040000       0.18610000
H       -2.71420000       0.73610000      -0.07920000
