27
Properties=species:S:1:pos:R:3 gdb_96544=T pbc="F F F"
C       -0.11300000       1.59000000      -0.00570000
C        0.03980000       0.06080000      -0.00750000
C        0.60930000      -0.44570000      -1.35390000
C       -0.00560000      -1.77640000      -1.81800000
C        0.36870000      -3.01640000      -0.99390000
C        0.16570000      -2.90920000       0.52750000
C        1.15720000      -1.95310000       1.21450000
C        0.80380000      -0.44670000       1.24710000
C        2.08220000       0.34890000       1.55810000
H        0.83850000       2.09380000      -0.20500000
H       -0.81920000       1.90510000      -0.78100000
H       -0.48930000       1.95640000       0.95610000
H       -0.97720000      -0.34640000       0.07090000
H        0.40480000       0.30560000      -2.12620000
H        1.70320000      -0.52840000      -1.30520000
H       -1.09890000      -1.66280000      -1.82010000
H        0.27850000      -1.95980000      -2.86190000
H       -0.20770000      -3.86890000      -1.37450000
H        1.42450000      -3.26210000      -1.17620000
H       -0.87020000      -2.62770000       0.75860000
H        0.30360000      -3.91020000       0.95360000
H        1.30940000      -2.27280000       2.25250000
H        2.13510000      -2.07860000       0.72890000
H        0.11670000      -0.29180000       2.09160000
H        2.78340000       0.32420000       0.71540000
H        1.87540000       1.39660000       1.79110000
H        2.59840000      -0.08490000       2.42140000
