23
Properties=species:S:1:pos:R:3 gdb_122024=T pbc="F F F"
C       -0.61410000       1.57250000      -0.50960000
O       -0.80480000       0.18450000      -0.64450000
C       -0.40970000      -0.53840000       0.49790000
C       -0.64390000      -2.02490000       0.23380000
C        0.19330000      -2.53940000      -0.93580000
O       -0.33040000      -2.67400000       1.45990000
C       -0.78680000      -4.01050000       1.58270000
C       -0.64370000      -4.38280000       3.05100000
O       -1.39500000      -3.51810000       3.87830000
H       -0.94670000       2.04060000      -1.43920000
H       -1.20020000       1.98540000       0.32650000
H        0.44510000       1.82450000      -0.34250000
H        0.65580000      -0.36690000       0.72710000
H       -0.99180000      -0.23100000       1.38170000
H       -1.71330000      -2.16560000       0.00800000
H       -0.04330000      -3.57920000      -1.17740000
H       -0.00360000      -1.92800000      -1.81970000
H        1.25920000      -2.47330000      -0.69310000
H       -1.84340000      -4.07810000       1.27950000
H       -0.20120000      -4.69870000       0.95480000
H       -1.01920000      -5.39870000       3.21210000
H        0.42480000      -4.37100000       3.32030000
H       -1.17290000      -2.62690000       3.58310000
