18
Properties=species:S:1:pos:R:3 gdb_14393=T pbc="F F F"
C       -0.05600000       1.59570000       0.02250000
C        0.08610000       0.06880000       0.03310000
C       -1.12810000      -0.62570000      -0.58020000
C        1.35890000      -0.70970000      -0.23350000
C        2.63960000      -0.13920000       0.44900000
O        2.32710000       1.07020000       1.15430000
C        2.00550000      -0.18920000       1.76110000
C        0.69200000      -0.76220000       1.14640000
H        0.73650000       2.07660000      -0.55220000
H       -1.01510000       1.87020000      -0.43080000
H       -0.02780000       2.01630000       1.02850000
H       -1.26810000      -0.30540000      -1.61860000
H       -1.02750000      -1.71550000      -0.57300000
H       -2.03740000      -0.36600000      -0.02690000
H        1.40630000      -1.49840000      -0.97500000
H        3.66560000      -0.28600000       0.13350000
H        2.40070000      -0.38560000       2.75050000
H        0.16470000      -1.59630000       1.59400000
