16
Properties=species:S:1:pos:R:3 gdb_6354=T pbc="F F F"
C       -0.38510000       1.45950000      -0.09650000
O       -0.36860000       0.10120000       0.36890000
C       -1.12580000      -0.75640000      -0.33460000
O       -1.78310000      -0.43960000      -1.29610000
C       -1.04110000      -2.15840000       0.24590000
C       -2.43700000      -2.71500000       0.58690000
C       -3.30130000      -3.12150000      -0.58450000
O       -2.78530000      -2.81650000       1.73730000
H        0.27400000       2.00830000       0.57550000
H       -0.02160000       1.51750000      -1.12520000
H       -1.39890000       1.86490000      -0.05700000
H       -0.57670000      -2.79220000      -0.51800000
H       -0.43180000      -2.15930000       1.14830000
H       -2.85150000      -3.98870000      -1.08360000
H       -4.30190000      -3.38160000      -0.23810000
H       -3.33450000      -2.31230000      -1.31970000
