20
Properties=species:S:1:pos:R:3 gdb_76662=T pbc="F F F"
C       -0.43550000       0.98450000       1.06480000
C        0.06290000      -0.18820000       0.24450000
C        1.46370000      -0.28670000      -0.32750000
N        2.45410000       0.70650000       0.04990000
H        2.49530000       0.79970000       1.77310000
H        3.37970000       0.40870000      -0.24400000
H        2.27190000       1.59820000      -0.40240000
C        1.00440000      -1.27540000       0.72520000
C        1.61330000      -1.45710000       2.11650000
C        1.72260000      -0.31910000       3.14360000
O        1.33070000      -0.46220000       4.27370000
O        2.34610000       0.80060000       2.75950000
H        0.33910000       1.44920000       1.67360000
H       -0.85150000       1.75320000       0.40370000
H       -1.23700000       0.66520000       1.73890000
H       -0.69680000      -0.55980000      -0.43920000
H        1.54510000      -0.66190000      -1.34710000
H        0.77400000      -2.25270000       0.30750000
H        1.04480000      -2.23390000       2.63220000
H        2.63190000      -1.85380000       1.99220000
