18
Properties=species:S:1:pos:R:3 gdb_96638=T pbc="F F F"
C        0.09030000       1.23370000      -0.24090000
N        0.48410000      -0.16370000      -0.05240000
H        0.06510000      -0.77530000      -0.73990000
C        0.40010000      -0.72950000       1.23100000
N        1.10300000       0.01170000       2.20120000
C       -0.27520000      -1.86040000       1.51430000
N       -1.24000000      -2.49540000       0.67710000
C        2.58970000      -2.42270000      -0.21970000
O        3.35480000      -1.92690000       0.50210000
O        1.85550000      -2.94220000      -0.95860000
H        0.61170000       1.85640000       0.48700000
H        0.38030000       1.55500000      -1.24520000
H       -0.99020000       1.40480000      -0.11600000
H        2.07310000       0.14850000       1.93340000
H        1.05340000      -0.42210000       3.11420000
H       -0.13810000      -2.32000000       2.49000000
H       -1.65110000      -1.85350000       0.00880000
H       -0.85830000      -3.28220000       0.15950000
