21
Properties=species:S:1:pos:R:3 gdb_58724=T pbc="F F F"
C       -0.04090000       1.57030000       0.21740000
C       -0.04020000       0.04580000       0.01510000
C        0.82670000      -0.65340000       1.07190000
C       -1.44170000      -0.49340000       0.00400000
C       -2.66510000      -0.15290000      -0.91320000
C       -3.61630000      -0.46890000       0.23080000
C       -3.19570000      -1.56710000      -0.73510000
C       -1.98230000      -1.90910000       0.17850000
C       -2.40510000      -0.80870000       1.14800000
H        0.97520000       1.97420000       0.15710000
H       -0.64790000       2.07280000      -0.54230000
H       -0.45200000       1.83060000       1.19900000
H        0.40200000      -0.16050000      -0.97170000
H        0.43620000      -0.47600000       2.08040000
H        0.86560000      -1.73490000       0.90890000
H        1.85230000      -0.27260000       1.04250000
H       -2.78730000       0.53000000      -1.74390000
H       -4.60100000      -0.07110000       0.43690000
H       -3.79860000      -2.16530000      -1.40520000
H       -1.45390000      -2.83200000       0.37900000
H       -2.25670000      -0.74510000       2.21800000
