12
Properties=species:S:1:pos:R:3 gdb_133399=T pbc="F F F"
O        0.06390000       1.32910000      -0.18450000
C       -0.01560000       0.00970000      -0.05800000
C       -1.15160000      -0.71120000       0.05720000
F       -2.36150000      -0.16160000       0.05710000
C       -1.05060000      -2.13100000       0.18540000
N        0.04210000      -2.81590000       0.20320000
O        1.22970000      -2.07540000       0.08390000
C        1.25170000      -0.71990000      -0.04350000
N        2.32180000      -0.03800000      -0.15230000
H        1.02600000       1.51020000      -0.24210000
H       -1.95770000      -2.72070000       0.27880000
H        3.16550000      -0.60620000      -0.13490000
