18
Properties=species:S:1:pos:R:3 gdb_50522=T pbc="F F F"
O       -0.54300000       1.91500000       0.84040000
C        0.24300000       1.20280000       0.26620000
C        1.56530000       1.68140000      -0.28470000
N        2.21210000       0.74060000      -1.22140000
C        2.53040000       1.84020000      -2.16640000
C        1.55320000       2.77030000      -1.41450000
C        0.25910000       3.33610000      -2.02930000
C        0.80050000       4.69610000      -1.55120000
O        2.01540000       4.07320000      -1.06600000
H        0.03120000       0.12840000       0.06230000
H        2.18960000       2.05120000       0.54160000
H        3.01780000       0.24740000      -0.85450000
H        3.55200000       2.23450000      -2.09310000
H        2.30480000       1.61320000      -3.21440000
H        0.19330000       3.21630000      -3.11220000
H       -0.67100000       3.01060000      -1.56480000
H        1.01080000       5.44060000      -2.32630000
H        0.23740000       5.16500000      -0.73750000
