16
Properties=species:S:1:pos:R:3 gdb_17198=T pbc="F F F"
O        0.18480000       1.42470000      -0.14800000
C        0.05840000       0.03870000      -0.03690000
C        0.04540000      -0.66960000       1.36300000
C       -1.42890000      -0.16370000       1.52810000
C       -1.35000000      -0.64850000       0.03960000
C       -0.57730000      -1.84750000       0.60330000
C       -0.12140000      -3.13400000       0.10210000
O       -1.11670000      -3.01990000       1.15340000
H       -0.40490000       1.85350000       0.48050000
H        0.74830000      -0.38380000      -0.77110000
H        0.83520000      -0.69340000       2.11300000
H       -2.06820000      -0.74570000       2.19290000
H       -1.57830000       0.90560000       1.70260000
H       -2.14090000      -0.64840000      -0.70950000
H       -0.49750000      -3.52120000      -0.84360000
H        0.83660000      -3.54140000       0.42160000
