18
Properties=species:S:1:pos:R:3 gdb_115427=T pbc="F F F"
C        0.26170000       1.06570000       0.36260000
O       -0.09620000      -0.29710000       0.20290000
C       -1.41950000      -0.49050000      -0.20350000
C       -1.65970000      -1.98960000      -0.34410000
C       -1.97770000      -2.38510000       1.10490000
C       -2.75630000      -1.14620000       1.60650000
O       -2.34510000      -0.04760000       0.78980000
C       -4.21680000      -1.31760000       1.48190000
N       -5.35860000      -1.46970000       1.39340000
H        1.31630000       1.08650000       0.64410000
H        0.13020000       1.62330000      -0.57660000
H       -0.33560000       1.54860000       1.14420000
H       -1.63550000       0.10420000      -1.10150000
H       -2.51870000      -2.16640000      -0.99720000
H       -0.78730000      -2.49900000      -0.75350000
H       -2.55520000      -3.30530000       1.19780000
H       -1.05570000      -2.48450000       1.68100000
H       -2.53360000      -0.92000000       2.65470000
