21
Properties=species:S:1:pos:R:3 gdb_32845=T pbc="F F F"
C       -0.28350000       1.65670000      -0.05640000
C       -0.39490000       0.19130000      -0.46240000
N       -1.10860000      -0.58080000       0.56990000
C       -1.30760000      -1.94550000       0.28660000
C       -0.62290000      -3.08830000       0.63960000
C       -1.32040000      -4.20800000       0.08690000
C       -0.94190000      -5.65320000       0.21020000
C       -2.40240000      -3.70210000      -0.59510000
N       -2.38780000      -2.33090000      -0.46960000
H        0.22370000       2.23680000      -0.83300000
H       -1.27410000       2.08840000       0.11400000
H        0.29450000       1.76630000       0.86880000
H       -0.96390000       0.10270000      -1.39450000
H        0.60560000      -0.22460000      -0.66710000
H       -0.62890000      -0.48410000       1.45760000
H        0.28720000      -3.12080000       1.22100000
H       -0.91870000      -5.98020000       1.25680000
H       -1.65460000      -6.29350000      -0.31850000
H        0.05240000      -5.85320000      -0.20710000
H       -3.17260000      -4.20340000      -1.15970000
H       -3.10470000      -1.69790000      -0.77830000
