21
Properties=species:S:1:pos:R:3 gdb_5873=T pbc="F F F"
C       -0.05270000       1.55280000       0.22410000
C       -0.00060000       0.03830000      -0.04290000
C        0.86550000      -0.65190000       1.02380000
C       -1.42690000      -0.53860000      -0.00640000
C        0.57050000      -0.23590000      -1.45610000
N        1.92390000       0.24940000      -1.67980000
C        3.00700000      -0.57010000      -1.75270000
O        2.98870000      -1.77410000      -1.60630000
H        0.94860000       1.99700000       0.21230000
H       -0.66480000       2.07080000      -0.52380000
H       -0.48750000       1.75970000       1.20760000
H        0.44470000      -0.49420000       2.02250000
H        0.92930000      -1.72960000       0.84560000
H        1.88560000      -0.25680000       1.02430000
H       -2.06890000      -0.06930000      -0.76070000
H       -1.42260000      -1.61790000      -0.19380000
H       -1.88850000      -0.37200000       0.97240000
H        0.60160000      -1.31300000      -1.63840000
H       -0.09150000       0.21450000      -2.20650000
H        2.06980000       1.23260000      -1.84180000
H        3.93500000      -0.00270000      -1.96740000
