12
Properties=species:S:1:pos:R:3 gdb_23620=T pbc="F F F"
F        0.07170000       0.05180000       0.04220000
C       -0.05440000       1.36900000       0.00800000
C       -1.20750000       2.03410000       0.11990000
C       -1.19010000       3.49790000       0.06320000
N       -2.27470000       4.16820000       0.16680000
N        0.07610000       4.12300000      -0.11030000
C        1.12560000       3.40050000      -0.20770000
N        1.14450000       2.02480000      -0.15860000
H       -2.14440000       1.51220000       0.25050000
H       -2.04910000       5.16280000       0.10300000
H        2.10220000       3.86150000      -0.34080000
H        1.99830000       1.49710000      -0.24020000
