21
Properties=species:S:1:pos:R:3 gdb_92625=T pbc="F F F"
C        0.11180000       1.60440000       0.03910000
C        0.13920000       0.08790000      -0.02380000
C        0.86950000      -0.52040000      -1.24700000
C        1.54590000      -1.78540000      -0.67960000
C        3.08410000      -1.77250000      -0.61970000
O        3.42180000      -2.51470000       0.53950000
C        2.47930000      -2.16850000       1.55060000
C        1.18340000      -1.76130000       0.82790000
O        0.84680000      -0.41100000       1.10960000
H        1.13080000       2.00380000       0.02470000
H       -0.43500000       2.01240000      -0.81670000
H       -0.37940000       1.94470000       0.95490000
H       -0.89470000      -0.29870000       0.00080000
H        0.17630000      -0.73840000      -2.06300000
H        1.61580000       0.18440000      -1.63010000
H        1.19990000      -2.70320000      -1.15990000
H        3.56980000      -2.24830000      -1.47570000
H        3.44920000      -0.73430000      -0.54420000
H        2.36240000      -3.03700000       2.20410000
H        2.82690000      -1.31400000       2.14870000
H        0.33730000      -2.42010000       1.06900000
