20
Properties=species:S:1:pos:R:3 gdb_79622=T pbc="F F F"
C       -0.30310000       1.56770000       0.09060000
C        0.04050000       0.07950000      -0.00610000
C        0.68730000      -0.39420000      -1.32260000
C        2.03120000       0.09520000      -1.80120000
O        2.65820000       1.27260000      -1.37240000
C        1.96790000      -1.13510000      -0.93720000
C        2.04310000      -1.09480000       0.57590000
C        2.20340000       0.18730000       1.31620000
N        0.86770000      -0.40380000       1.13110000
H        0.58670000       2.19530000       0.00580000
H       -0.99880000       1.85000000      -0.70620000
H       -0.78210000       1.78240000       1.05030000
H       -0.90110000      -0.47790000       0.07640000
H        0.00900000      -0.78290000      -2.07680000
H        2.22690000      -0.12440000      -2.85250000
H        2.23480000       2.00760000      -1.82840000
H        2.24670000      -2.07570000      -1.39920000
H        2.32420000      -2.03280000       1.04800000
H        2.54390000       0.16630000       2.34900000
H        2.49650000       1.06010000       0.75130000
