16
Properties=species:S:1:pos:R:3 gdb_31458=T pbc="F F F"
C       -0.12760000       1.43410000       0.21250000
N       -0.05550000       0.06600000      -0.29400000
C       -1.15520000      -0.75650000      -0.15940000
C       -1.30200000      -2.10030000       0.01490000
C       -2.72570000      -2.35070000      -0.03510000
C       -3.31740000      -1.13650000      -0.22170000
O       -2.36670000      -0.15710000      -0.30080000
C       -3.37770000      -3.59840000       0.09570000
C       -3.91490000      -4.67030000       0.20980000
H        0.80840000       1.94250000      -0.02860000
H       -0.94110000       1.96330000      -0.28690000
H       -0.29430000       1.49240000       1.29840000
H        0.79640000      -0.41340000      -0.04150000
H       -0.52440000      -2.83120000       0.16100000
H       -4.34060000      -0.81450000      -0.30090000
H       -4.39530000      -5.61150000       0.30890000
