17
Properties=species:S:1:pos:R:3 gdb_43872=T pbc="F F F"
N        0.05880000       1.14070000       0.73250000
C       -0.03310000       0.05960000       0.10740000
C       -1.16780000      -0.84990000      -0.30710000
C       -0.04680000      -1.70690000      -0.92620000
C        0.31070000      -3.17200000      -0.60720000
N        0.51750000      -3.49710000      -2.06600000
C       -0.78390000      -3.23900000      -2.70150000
C        0.07650000      -2.07740000      -2.39120000
O        0.94580000      -0.73840000      -0.45810000
H        1.03110000       1.44350000       0.81190000
H       -1.71400000      -1.30630000       0.52050000
H       -1.87480000      -0.41460000      -1.01600000
H        1.25460000      -3.24190000      -0.06400000
H       -0.45050000      -3.78770000      -0.11640000
H       -0.82680000      -3.56290000      -3.73670000
H       -1.69700000      -3.41180000      -2.13410000
H        0.56760000      -1.47170000      -3.14520000
