17
Properties=species:S:1:pos:R:3 gdb_74327=T pbc="F F F"
N        0.04910000       1.35520000      -0.09540000
C       -0.03910000      -0.00800000      -0.05160000
N       -1.08110000      -0.69900000       0.19680000
C       -0.69700000      -2.10070000       0.03060000
C       -1.53700000      -2.80760000      -1.05730000
C       -2.93930000      -2.96610000      -0.69860000
C       -4.09060000      -3.11680000      -0.38950000
C        0.81640000      -2.04640000      -0.33730000
O        1.12840000      -0.64010000      -0.35900000
H        0.96530000       1.73700000       0.07920000
H       -0.70970000       1.83190000       0.36560000
H       -0.85140000      -2.63880000       0.97330000
H       -1.44930000      -2.23470000      -1.98930000
H       -1.09860000      -3.79640000      -1.25150000
H       -5.11060000      -3.23540000      -0.12060000
H        1.46070000      -2.53240000       0.40030000
H        1.03450000      -2.46190000      -1.32700000
