13
Properties=species:S:1:pos:R:3 gdb_129708=T pbc="F F F"
N        0.18290000       1.41500000       0.09770000
C        0.00150000       0.02860000       0.00540000
C       -1.11660000      -0.78450000       0.02490000
O       -2.39430000      -0.34260000       0.09920000
C       -0.61200000      -2.10640000      -0.05350000
N        0.73030000      -2.11860000      -0.12420000
N        1.06140000      -0.83020000      -0.07280000
C       -1.40630000      -3.28040000      -0.06750000
N       -2.14470000      -4.17330000      -0.07000000
H       -0.59340000       1.84260000       0.58990000
H        0.25520000       1.86080000      -0.81230000
H       -2.98780000      -1.10080000       0.15490000
H        2.03390000      -0.56620000      -0.07960000
