20
Properties=species:S:1:pos:R:3 gdb_80487=T pbc="F F F"
C        0.10540000       1.71180000      -0.31220000
N        0.14130000       0.28240000      -0.02730000
C        1.29060000      -0.56790000      -0.26040000
C        2.68940000       0.03430000      -0.38370000
C        2.99920000       0.76670000       0.94630000
O        3.08040000       2.16850000       0.78270000
C        1.84470000       0.36760000       1.93910000
O        1.33250000       1.51310000       2.63180000
C        0.76780000      -0.33130000       1.12800000
H        1.06550000       2.23200000      -0.23600000
H       -0.27910000       1.84090000      -1.32980000
H       -0.60260000       2.18210000       0.37620000
H        1.08770000      -1.48810000      -0.80440000
H        3.40690000      -0.77520000      -0.55470000
H        2.78590000       0.73160000      -1.22160000
H        3.95920000       0.41370000       1.34840000
H        2.50200000       2.53890000       1.46780000
H        2.22730000      -0.35580000       2.66970000
H        1.77030000       1.57670000       3.48570000
H        0.14610000      -1.04750000       1.66170000
