15
Properties=species:S:1:pos:R:3 gdb_14219=T pbc="F F F"
C       -0.03270000       1.45600000       0.06550000
C        0.05870000      -0.03290000      -0.07580000
C       -0.58170000      -0.89960000      -1.15900000
C       -0.41590000      -2.03520000      -0.13160000
N       -0.32900000      -0.96580000       1.01660000
C        1.14510000      -0.82740000       0.60600000
C        1.09810000      -2.20170000       0.02410000
O        1.86530000      -3.11540000      -0.07210000
H        0.59770000       1.95630000      -0.67710000
H       -1.06510000       1.79070000      -0.07900000
H        0.29070000       1.77260000       1.06130000
H       -1.63170000      -0.62100000      -1.28850000
H       -0.10060000      -1.00620000      -2.13590000
H       -1.09960000      -2.87590000      -0.05070000
H        1.88390000      -0.37120000       1.25260000
