11
Properties=species:S:1:pos:R:3 gdb_3829=T pbc="F F F"
N       -0.06730000       1.32690000       0.15160000
C       -0.02330000       0.05280000      -0.00640000
C       -1.20920000      -0.77390000      -0.09350000
C       -1.06710000      -2.09660000      -0.25880000
O        0.11670000      -2.74440000      -0.35390000
N        1.30330000      -2.02000000      -0.27950000
C        1.20570000      -0.74940000      -0.12120000
H        0.87690000       1.71840000       0.18790000
H       -2.19150000      -0.32530000      -0.02560000
H       -1.88330000      -2.80550000      -0.33600000
H        2.17060000      -0.24680000      -0.07130000
