14
Properties=species:S:1:pos:R:3 gdb_48062=T pbc="F F F"
O        0.62080000       1.34650000       1.98490000
C        0.78200000       1.01980000       0.84200000
C        1.28560000       1.96030000      -0.26010000
O        1.79740000       1.45090000      -1.23430000
C        1.22120000       3.45270000      -0.08550000
C        2.58500000       4.11710000      -0.14510000
N        1.67330000       4.23040000      -1.26270000
C        0.16000000       4.02080000       0.69900000
C       -0.73400000       4.51170000       1.33290000
H        0.66430000      -0.02070000       0.47410000
H        2.71940000       5.01540000       0.44910000
H        3.44880000       3.46200000      -0.22480000
H        1.93210000       3.55000000      -1.97940000
H       -1.52120000       4.93820000       1.90420000
