22
Properties=species:S:1:pos:R:3 gdb_121628=T pbc="F F F"
C        0.10700000       1.42720000       0.06720000
C       -0.03740000      -0.09650000       0.02580000
C       -1.49460000      -0.52770000       0.02280000
O       -1.53020000      -1.96860000      -0.01330000
C       -2.75210000      -2.53300000      -0.00460000
O       -3.78340000      -1.90650000       0.01250000
C       -2.66130000      -4.06300000       0.00470000
C       -2.23790000      -4.53630000       1.40450000
N       -3.90620000      -4.71150000      -0.38890000
H        1.16060000       1.71950000       0.06970000
H       -0.36670000       1.89730000      -0.80140000
H       -0.35730000       1.84800000       0.96580000
H        0.45400000      -0.49980000      -0.86710000
H        0.46380000      -0.54830000       0.88960000
H       -2.02420000      -0.18000000       0.91630000
H       -2.03330000      -0.13700000      -0.84740000
H       -1.87860000      -4.34920000      -0.70670000
H       -2.99210000      -4.25460000       2.14780000
H       -2.14720000      -5.62470000       1.40770000
H       -1.28380000      -4.09160000       1.69710000
H       -4.66100000      -4.30980000       0.16390000
H       -4.12840000      -4.45810000      -1.34810000
