19
Properties=species:S:1:pos:R:3 gdb_101926=T pbc="F F F"
C        0.02610000       1.42730000      -0.50060000
N       -0.05910000       0.04090000      -0.03700000
H        0.49690000      -0.56420000      -0.63100000
H       -0.25300000       0.13760000       1.88320000
C       -1.42590000      -0.47940000       0.06340000
C       -1.41880000      -1.99170000      -0.04600000
C       -2.63950000      -2.71390000      -0.46090000
N       -1.47630000      -2.64400000      -1.36730000
C       -2.03610000      -0.08280000       1.42710000
O       -1.11160000       0.19710000       2.35710000
O       -3.21760000      -0.06530000       1.63890000
H        1.07590000       1.72290000      -0.57050000
H       -0.45140000       1.58990000      -1.47940000
H       -0.46070000       2.08640000       0.22520000
H       -2.09660000      -0.07220000      -0.70930000
H       -0.73560000      -2.47830000       0.64790000
H       -2.84640000      -3.69920000      -0.05570000
H       -3.52010000      -2.11970000      -0.68580000
H       -1.65370000      -1.94810000      -2.08920000
