20
Properties=species:S:1:pos:R:3 gdb_98618=T pbc="F F F"
C        0.27530000       1.62110000       0.36260000
C        0.47960000       0.12070000       0.17840000
C        0.21850000      -0.36080000      -1.24420000
O       -0.07300000       0.41340000      -2.13400000
C        0.34910000      -1.84270000      -1.42960000
C       -0.53440000      -2.68640000      -2.28810000
C       -0.98550000      -2.00200000      -3.57650000
C        0.52100000      -1.80600000      -3.87410000
N        0.92560000      -2.54520000      -2.61460000
H        0.93190000       2.18720000      -0.30260000
H       -0.75210000       1.90800000       0.12350000
H        0.48630000       1.91610000       1.39410000
H        1.50390000      -0.17820000       0.44400000
H       -0.16580000      -0.45810000       0.85450000
H        0.68280000      -2.35200000      -0.52850000
H       -0.94340000      -3.60880000      -1.88450000
H       -1.47430000      -2.69560000      -4.26320000
H       -1.59220000      -1.10260000      -3.46820000
H        0.88030000      -2.38440000      -4.72730000
H        0.88560000      -0.78220000      -3.93520000
