18
Properties=species:S:1:pos:R:3 gdb_128808=T pbc="F F F"
C       -0.05800000       1.36810000      -0.18600000
O       -0.03170000      -0.03850000      -0.23750000
C       -1.26540000      -0.61900000       0.12550000
C       -1.10580000      -2.10490000       0.11270000
N       -2.13880000      -2.93010000      -0.07460000
N       -1.59820000      -4.14060000       0.02240000
C       -2.37230000      -5.34600000      -0.18750000
N       -0.28930000      -4.17040000       0.24190000
C        0.04690000      -2.88060000       0.30860000
H        0.93380000       1.72310000      -0.47520000
H       -0.80300000       1.78820000      -0.87990000
H       -0.28780000       1.73570000       0.82680000
H       -1.56690000      -0.27180000       1.13000000
H       -2.06980000      -0.32310000      -0.56670000
H       -2.52720000      -5.52600000      -1.25580000
H       -1.81870000      -6.17780000       0.24610000
H       -3.34080000      -5.23640000       0.30210000
H        1.06310000      -2.57010000       0.48320000
