13
Properties=species:S:1:pos:R:3 gdb_128009=T pbc="F F F"
C        0.01080000       1.43330000      -0.03520000
N       -0.00110000      -0.01940000       0.01050000
C        0.52680000      -0.68230000      -0.91310000
O        1.13840000      -0.00030000      -2.00690000
N        1.73440000      -0.68780000      -3.05510000
N        1.73550000      -1.92580000      -3.03800000
C        1.12600000      -2.60110000      -1.94400000
O        1.20190000      -3.92050000      -2.05600000
N        0.55660000      -2.06150000      -0.94250000
H        1.03220000       1.83410000      -0.05190000
H       -0.50380000       1.81960000      -0.92420000
H       -0.49680000       1.81600000       0.85230000
H        1.66760000      -4.12420000      -2.87940000
