17
Properties=species:S:1:pos:R:3 gdb_4945=T pbc="F F F"
C        0.02080000       1.53250000      -0.04410000
C       -0.01830000       0.00480000       0.05990000
N       -1.36300000      -0.54170000       0.03260000
C       -2.11970000      -0.84720000       1.12770000
C       -3.37500000      -1.23440000       0.70530000
C       -3.36870000      -1.15140000      -0.71340000
O       -4.38360000      -1.44870000      -1.57900000
C       -2.12290000      -0.71840000      -1.10840000
H        1.05600000       1.88800000      -0.02270000
H       -0.43980000       1.87160000      -0.97620000
H       -0.52000000       1.99160000       0.78850000
H        0.55110000      -0.44490000      -0.76100000
H        0.45240000      -0.32460000       0.99140000
H       -1.70650000      -0.76780000       2.12100000
H       -4.19060000      -1.55740000       1.33530000
H       -5.14410000      -1.73170000      -1.06390000
H       -1.72100000      -0.53470000      -2.09050000
