20
Properties=species:S:1:pos:R:3 gdb_86624=T pbc="F F F"
O        0.21990000       0.61440000      -1.14220000
C       -0.13240000      -0.36300000      -0.20020000
C        0.42480000      -0.25670000       1.24860000
C       -1.00150000      -0.56010000       1.78880000
C       -1.58100000      -0.26760000       0.38300000
O       -2.06180000       1.06890000       0.33680000
N       -1.16380000      -1.96030000       2.13790000
C       -0.95570000      -2.30320000       3.54060000
C       -2.32620000      -2.29250000       2.95680000
H       -0.08510000       1.45380000      -0.77460000
H        0.06910000      -1.33600000      -0.65270000
H        1.21170000      -0.95540000       1.53820000
H        0.74200000       0.76350000       1.48120000
H       -1.37510000       0.12480000       2.56640000
H       -2.32890000      -0.97970000       0.01550000
H       -2.36590000       1.23000000      -0.56310000
H       -0.44280000      -3.24200000       3.72890000
H       -0.70360000      -1.49850000       4.22950000
H       -2.98750000      -1.48100000       3.25620000
H       -2.82850000      -3.22350000       2.71110000
