17
Properties=species:S:1:pos:R:3 gdb_43799=T pbc="F F F"
O       -0.03450000       0.18760000      -0.68430000
C       -0.03010000       1.27950000      -0.19000000
C       -1.10230000       2.16030000       0.50110000
C       -0.02630000       3.26060000       0.59520000
C       -0.16120000       4.71460000       0.55040000
O        0.20710000       4.02970000       1.76100000
C        1.01740000       2.34340000      -0.01670000
C        2.43370000       2.11690000       0.47690000
C        2.20630000       2.62970000      -0.90500000
H       -1.98410000       2.38030000      -0.10630000
H       -1.42200000       1.77420000       1.47360000
H        0.62430000       5.32230000       0.10260000
H       -1.15150000       5.16840000       0.55390000
H        2.77280000       2.80940000       1.23980000
H        2.74410000       1.08590000       0.60610000
H        2.35040000       1.95090000      -1.73910000
H        2.42310000       3.67180000      -1.11590000
