15
Properties=species:S:1:pos:R:3 gdb_8589=T pbc="F F F"
O       -0.18030000      -0.05020000      -0.24180000
C       -0.03410000       1.11430000      -0.03000000
N       -0.99220000       2.16460000       0.14160000
C        0.04840000       3.00890000       0.73070000
C        1.00070000       4.24750000       0.66380000
C        1.84690000       2.99820000       1.19920000
C        0.66210000       2.67110000       2.12500000
C        1.13370000       2.17790000       0.05400000
H       -1.91400000       1.99930000       0.53280000
H        1.25940000       4.62260000      -0.32770000
H        0.83850000       5.05700000       1.38090000
H        2.90650000       3.01430000       1.45580000
H        0.45960000       3.37160000       2.93790000
H        0.57200000       1.63100000       2.44860000
H        1.40050000       2.48680000      -0.96010000
