13
Properties=species:S:1:pos:R:3 gdb_23653=T pbc="F F F"
C       -0.01270000       1.48330000       0.01750000
C        0.00380000      -0.01770000      -0.01060000
N       -0.10060000      -0.62490000      -1.19500000
C       -0.08210000      -1.96340000      -1.18220000
C        0.03740000      -2.70800000      -0.02060000
C        0.13780000      -1.95120000       1.14240000
F        0.25600000      -2.57210000       2.30700000
N        0.12410000      -0.64190000       1.17530000
H        0.90860000       1.86190000       0.47140000
H       -0.11380000       1.87940000      -0.99260000
H       -0.84120000       1.83960000       0.63780000
H       -0.16730000      -2.45630000      -2.14760000
H        0.05260000      -3.78930000      -0.00550000
