19
Properties=species:S:1:pos:R:3 gdb_78362=T pbc="F F F"
C       -0.15510000       1.25340000      -0.07300000
N        0.14580000      -0.16970000       0.06340000
C        1.57290000      -0.48610000      -0.11800000
C        0.97160000      -0.48970000       1.25450000
C        1.03640000      -1.99700000       1.30620000
C        1.30700000      -2.86560000       2.46750000
N        0.00650000      -2.91520000       1.76660000
C        1.65810000      -2.02590000      -0.12880000
O        0.97630000      -2.70800000      -1.13350000
H        0.64510000       1.91560000       0.29750000
H       -0.32610000       1.48250000      -1.12930000
H       -1.07190000       1.48140000       0.47960000
H        2.24280000       0.23390000      -0.57240000
H        1.08240000       0.23090000       2.05650000
H        1.92210000      -3.75430000       2.34980000
H        1.35700000      -2.40760000       3.45300000
H       -0.70380000      -2.41140000       2.29290000
H        2.68920000      -2.38990000      -0.12260000
H        0.06700000      -2.38320000      -1.10100000
