13
Properties=species:S:1:pos:R:3 gdb_69026=T pbc="F F F"
N       -0.11490000       1.48060000      -0.21990000
C       -0.02860000       0.09260000      -0.06560000
C       -0.29810000      -0.85020000      -1.23660000
C       -1.12900000      -0.99240000      -0.00640000
O       -0.37560000      -1.74330000       0.97940000
C        0.58920000      -0.73370000       1.05300000
O        1.48980000      -0.64930000       1.81630000
C       -2.53730000      -0.88460000       0.12990000
N       -3.68550000      -0.78200000       0.22800000
H       -0.12570000       1.97490000       0.66410000
H        0.62130000       1.85580000      -0.80610000
H       -0.77360000      -0.35020000      -2.07460000
H        0.39190000      -1.65020000      -1.48380000
