23
Properties=species:S:1:pos:R:3 gdb_109866=T pbc="F F F"
C        0.01160000       1.56920000      -0.14310000
C        0.18060000       0.04640000      -0.09560000
C        0.71310000      -0.47450000       1.23680000
C       -0.23360000      -0.61910000       2.51060000
C       -1.71680000      -0.28210000       2.42310000
C        0.12310000      -2.11300000       2.52050000
O       -0.27900000      -2.65210000       1.25020000
C        0.99560000      -1.98710000       1.34300000
C        2.21080000      -2.73550000       0.89990000
H        0.96570000       2.07770000       0.03720000
H       -0.35850000       1.89500000      -1.12030000
H       -0.69630000       1.92260000       0.61290000
H       -0.76700000      -0.44970000      -0.32820000
H        0.88040000      -0.25650000      -0.88660000
H        1.60960000       0.09040000       1.52040000
H        0.22290000      -0.10780000       3.36440000
H       -2.19460000      -0.83430000       1.61010000
H       -2.22390000      -0.55520000       3.35560000
H       -1.88360000       0.78720000       2.26080000
H        0.15780000      -2.80450000       3.35630000
H        2.28150000      -2.75600000      -0.19380000
H        3.12010000      -2.26250000       1.28520000
H        2.17400000      -3.76890000       1.25490000
