21
Properties=species:S:1:pos:R:3 gdb_116861=T pbc="F F F"
C       -0.03400000       1.55080000      -0.00830000
C        0.01750000       0.01140000       0.01210000
C        0.69660000      -0.49700000       1.29070000
O       -1.31430000      -0.51970000       0.05920000
C        0.71960000      -0.48320000      -1.18390000
C        1.26860000      -0.86840000      -2.18540000
C        1.93220000      -1.37630000      -3.37930000
C        1.94700000      -2.90800000      -3.43860000
O        2.61300000      -3.26730000      -4.63690000
H        0.97240000       1.97920000       0.00230000
H       -0.54250000       1.90510000      -0.91030000
H       -0.58460000       1.90670000       0.86720000
H        0.13410000      -0.14970000       2.16210000
H        0.71280000      -1.58890000       1.29710000
H        1.72240000      -0.12660000       1.35630000
H       -1.72360000      -0.34630000      -0.79540000
H        1.43970000      -0.99960000      -4.28420000
H        2.96820000      -1.01850000      -3.42130000
H        2.46210000      -3.30230000      -2.55020000
H        0.91340000      -3.28420000      -3.41690000
H        2.63490000      -4.22670000      -4.69460000
