20
Properties=species:S:1:pos:R:3 gdb_84838=T pbc="F F F"
C       -0.43360000       1.38190000       0.10450000
C       -0.02740000      -0.07220000       0.00370000
C       -0.64890000      -1.08690000       0.90860000
N        0.70810000      -0.60390000       1.15960000
C        1.80580000      -1.54960000       0.93820000
C        1.81050000      -2.25690000      -0.39010000
C        1.13950000      -1.79610000      -1.44280000
C        0.33610000      -0.52630000      -1.41070000
O       -0.82710000      -0.61520000      -2.23700000
H        0.40780000       2.03640000      -0.15050000
H       -1.25050000       1.59330000      -0.59230000
H       -0.75550000       1.62650000       1.11940000
H       -1.39520000      -0.78180000       1.63780000
H       -0.76730000      -2.10190000       0.53220000
H        2.74710000      -0.99530000       1.06340000
H        1.78110000      -2.28170000       1.75560000
H        2.39760000      -3.16950000      -0.46420000
H        1.15550000      -2.31130000      -2.39950000
H        0.92230000       0.27470000      -1.88290000
H       -1.39940000      -1.28530000      -1.84600000
