17
Properties=species:S:1:pos:R:3 gdb_104385=T pbc="F F F"
O       -0.20410000       1.47480000      -0.50050000
C        0.04320000       0.11330000      -0.19350000
C       -1.28590000      -0.58300000       0.10290000
O       -2.20150000      -0.34430000      -0.95790000
C       -1.25340000      -2.07650000       0.39870000
C       -2.46020000      -2.24700000       1.33430000
O       -2.57870000      -0.99310000       2.04630000
C       -1.91810000      -0.01870000       1.39530000
O       -1.87120000       1.12030000       1.78720000
H       -0.60810000       1.85600000       0.29560000
H        0.50300000      -0.33560000      -1.07980000
H        0.73530000      -0.00160000       0.65370000
H       -2.03200000       0.57030000      -1.23130000
H       -1.33320000      -2.67210000      -0.51160000
H       -0.32730000      -2.33930000       0.92000000
H       -3.38800000      -2.41280000       0.77970000
H       -2.33870000      -3.03360000       2.08040000
