14
Properties=species:S:1:pos:R:3 gdb_123676=T pbc="F F F"
C       -0.04950000       1.58470000      -0.06830000
C        1.49220000       1.33060000      -0.00620000
O        1.18260000       0.16900000       0.85610000
C       -0.01650000       0.02290000       0.00190000
C        0.65520000      -0.30840000      -1.31820000
N        0.69220000      -1.04620000      -2.40770000
N        1.77400000      -0.53750000      -3.03730000
N        2.43500000       0.46450000      -2.41720000
C        1.71660000       0.61170000      -1.32390000
H       -0.42430000       2.02290000       0.85850000
H       -0.47220000       2.06690000      -0.95240000
H        2.21280000       2.02850000       0.41110000
H       -0.80700000      -0.58900000       0.42740000
H        2.10630000      -0.92640000      -3.90430000
