16
Properties=species:S:1:pos:R:3 gdb_52990=T pbc="F F F"
C       -0.04930000       1.48850000       0.02430000
C       -0.01640000       0.03560000      -0.00960000
C        0.00770000      -1.16920000      -0.03430000
C        0.08680000      -2.58510000      -0.03040000
C       -0.38500000      -3.46430000      -1.15750000
N       -1.11280000      -3.58160000       0.09190000
C       -0.26590000      -4.48980000       0.94060000
C        0.87650000      -3.45650000       0.92220000
O        1.86570000      -3.28720000       1.56880000
H        0.81400000       1.88460000       0.56990000
H       -0.03300000       1.91470000      -0.98460000
H       -0.95330000       1.84960000       0.52700000
H       -0.92900000      -2.94790000      -1.94220000
H        0.24110000      -4.28880000      -1.49580000
H       -0.68460000      -4.59210000       1.94510000
H       -0.09090000      -5.47950000       0.50860000
