17
Properties=species:S:1:pos:R:3 gdb_98713=T pbc="F F F"
C       -0.43440000       1.04540000      -0.30480000
O        0.03370000      -0.29540000      -0.15340000
C        0.80510000      -0.75890000      -1.15460000
N        1.07650000      -0.06920000      -2.18370000
N        1.30090000      -2.03000000      -0.81850000
C        0.43880000      -3.08230000      -0.32560000
C        1.10070000      -3.20760000      -1.67340000
C        0.31200000      -3.13440000      -2.87190000
C       -0.31840000      -3.07770000      -3.89390000
H        0.40530000       1.74040000      -0.38760000
H       -1.05270000       1.14120000      -1.20120000
H       -1.02010000       1.25430000       0.59150000
H        1.66340000      -0.59440000      -2.82660000
H        0.82290000      -3.65730000       0.51230000
H       -0.63140000      -2.90010000      -0.32030000
H        1.98620000      -3.83460000      -1.74860000
H       -0.88540000      -3.02360000      -4.79040000
