19
Properties=species:S:1:pos:R:3 gdb_106356=T pbc="F F F"
C        0.04520000       1.35280000      -0.08910000
O       -0.02560000      -0.04720000       0.10050000
C       -1.30460000      -0.57940000       0.06230000
C       -2.18130000      -0.60590000      -1.23610000
C       -2.85290000      -1.81760000      -0.50590000
C       -1.42880000      -2.12080000       0.07150000
C       -3.47870000      -1.10830000       0.68580000
O       -4.57170000      -1.24150000       1.16400000
C       -2.34090000      -0.16270000       1.13570000
H        1.10440000       1.61790000      -0.09520000
H       -0.40160000       1.65650000      -1.04680000
H       -0.45240000       1.90550000       0.71980000
H       -2.80530000       0.25840000      -1.47850000
H       -1.60930000      -0.92860000      -2.10850000
H       -3.45440000      -2.56070000      -1.02270000
H       -0.78010000      -2.58430000      -0.67400000
H       -1.35340000      -2.64260000       1.02900000
H       -2.01710000      -0.37720000       2.15860000
H       -2.65700000       0.88300000       1.08040000
