21
Properties=species:S:1:pos:R:3 gdb_95362=T pbc="F F F"
O       -0.18460000       1.45150000       0.01470000
C       -0.00370000       0.03630000       0.02820000
C        0.69740000      -0.49700000       1.31960000
C       -0.43470000      -1.02250000       2.23540000
C       -1.43020000      -1.62040000       1.22300000
C       -2.94340000      -1.69490000       1.51740000
C       -3.62120000      -1.21880000       0.19710000
C       -2.54320000      -0.37250000      -0.45450000
C       -1.35670000      -0.61870000       0.09180000
H        0.68380000       1.85210000      -0.09740000
H        0.56260000      -0.27010000      -0.86480000
H        1.36660000      -1.32320000       1.05060000
H        1.30980000       0.28040000       1.78610000
H       -0.07500000      -1.73050000       2.98750000
H       -0.90960000      -0.18530000       2.76060000
H       -1.05170000      -2.60250000       0.89640000
H       -3.27980000      -2.68580000       1.83460000
H       -3.19080000      -0.99140000       2.32060000
H       -3.90200000      -2.06800000      -0.44330000
H       -4.54460000      -0.65800000       0.38010000
H       -2.74500000       0.34730000      -1.23930000
