17
Properties=species:S:1:pos:R:3 gdb_32287=T pbc="F F F"
C        0.03240000       1.56580000       0.08380000
C       -0.01080000       0.03710000      -0.09070000
C       -1.40670000      -0.52170000      -0.05390000
C       -2.05160000      -1.01710000      -1.14840000
N       -3.32790000      -1.52870000      -1.16810000
C       -3.94420000      -1.53410000      -0.03020000
N       -3.40000000      -1.07610000       1.12480000
C       -2.10220000      -0.53340000       1.22610000
O       -1.68010000      -0.14480000       2.30140000
H        1.06610000       1.92420000       0.06220000
H       -0.51860000       2.06850000      -0.71750000
H       -0.40960000       1.85090000       1.04110000
H        0.46260000      -0.24530000      -1.03740000
H        0.57070000      -0.42440000       0.71570000
H       -1.54460000      -1.02750000      -2.11070000
H       -4.95760000      -1.92140000       0.04000000
H       -3.92350000      -1.10630000       1.99040000
