20
Properties=species:S:1:pos:R:3 gdb_58736=T pbc="F F F"
C        0.01950000       1.55200000       0.15270000
C       -0.00900000       0.02980000       0.01220000
O        0.76380000      -0.62290000       1.01640000
C       -1.40680000      -0.51300000       0.02430000
C       -2.41280000      -0.82760000       1.09810000
C       -3.40540000       0.07980000       0.39500000
N       -2.58960000      -0.05500000      -0.87770000
C       -2.79530000      -1.52360000      -1.20530000
C       -2.00770000      -1.88450000       0.04060000
H        1.04950000       1.91610000       0.11050000
H       -0.56010000       2.01970000      -0.64810000
H       -0.41880000       1.85880000       1.11040000
H        0.47420000      -0.24760000      -0.93330000
H        0.43360000      -0.32050000       1.87020000
H       -2.24710000      -1.00580000       2.15400000
H       -4.45260000      -0.22890000       0.29610000
H       -3.36040000       1.11400000       0.74590000
H       -3.84530000      -1.82380000      -1.29900000
H       -2.26120000      -1.76560000      -2.12790000
H       -1.53250000      -2.81220000       0.33280000
