25
Properties=species:S:1:pos:R:3 gdb_104734=T pbc="F F F"
C       -0.59930000      -0.36090000       0.58220000
C        0.91820000      -0.58650000       0.54330000
C        1.48870000      -0.85080000      -0.84910000
C        1.43340000       0.37240000      -1.74600000
O        2.15000000       1.42370000      -1.10170000
C        2.72090000      -1.72660000      -0.95990000
C        1.39680000      -2.24290000      -1.47870000
C        0.71880000      -3.37320000      -0.71860000
C        1.21880000      -2.40970000      -2.98170000
H       -0.89450000       0.51310000      -0.00730000
H       -1.14610000      -1.22510000       0.19160000
H       -0.93800000      -0.18730000       1.60870000
H        1.42580000       0.29830000       0.94090000
H        1.17780000      -1.41040000       1.21410000
H        1.87730000       0.15700000      -2.72560000
H        0.38700000       0.66870000      -1.92160000
H        2.04200000       2.22120000      -1.62790000
H        3.48240000      -1.44550000      -1.68110000
H        3.11910000      -2.15690000      -0.04580000
H        0.84810000      -3.30040000       0.36260000
H       -0.35740000      -3.40540000      -0.92710000
H        1.13870000      -4.33620000      -1.03300000
H        1.53350000      -3.41620000      -3.28260000
H        0.16820000      -2.29640000      -3.27610000
H        1.80960000      -1.70230000      -3.56660000
