14
Properties=species:S:1:pos:R:3 gdb_17203=T pbc="F F F"
O        0.11300000       1.43470000      -0.07330000
C        0.09560000       0.05090000      -0.07930000
C        0.04040000      -0.68130000       1.30160000
O       -1.34920000      -0.14690000       1.44700000
C       -1.29260000      -0.65900000       0.04260000
C       -0.55820000      -1.88800000       0.57870000
C       -0.10900000      -3.17960000       0.08020000
O       -1.09920000      -3.04420000       1.13100000
H       -0.52620000       1.69210000       0.60820000
H        0.79900000      -0.31410000      -0.83050000
H        0.69900000      -0.61730000       2.16640000
H       -2.19220000      -0.56900000      -0.56420000
H       -0.49000000      -3.56410000      -0.86410000
H        0.84850000      -3.58650000       0.40010000
