19
Properties=species:S:1:pos:R:3 gdb_75454=T pbc="F F F"
C       -0.21370000       1.46440000       0.03090000
C       -0.02280000      -0.01510000      -0.03820000
C        0.11480000      -0.79660000      -1.10390000
C        0.23730000      -2.23400000      -0.69630000
O        0.28060000      -2.21060000       0.72860000
C        0.00210000      -0.88930000       1.21700000
C        1.10780000      -0.50660000       2.21320000
C       -1.31390000      -0.86290000       1.88320000
C       -2.38650000      -0.82210000       2.42500000
H        0.60980000       1.95170000       0.56670000
H       -0.27330000       1.90290000      -0.96820000
H       -1.13440000       1.71000000       0.57290000
H        0.11990000      -0.47100000      -2.13720000
H       -0.61510000      -2.83890000      -1.04650000
H        1.15230000      -2.71470000      -1.07160000
H        2.07210000      -0.48970000       1.69810000
H        0.91540000       0.47470000       2.65540000
H        1.14730000      -1.24630000       3.01620000
H       -3.33490000      -0.80040000       2.90270000
