15
Properties=species:S:1:pos:R:3 gdb_13247=T pbc="F F F"
O       -0.24090000       0.07350000       0.48010000
C        0.23920000       0.82350000      -0.32800000
C        1.00120000       2.08940000       0.03510000
N        1.06860000       2.97700000      -1.11270000
C        1.08090000       4.21340000      -0.92440000
C        1.11630000       5.43770000      -1.81320000
C        1.06990000       6.20140000      -0.47350000
O        1.05630000       4.93410000       0.25590000
H        0.17660000       0.63920000      -1.42360000
H        0.55620000       2.53520000       0.93330000
H        2.01780000       1.76800000       0.31250000
H        2.03140000       5.55230000      -2.39620000
H        0.25090000       5.55550000      -2.46700000
H        1.95470000       6.78750000      -0.21560000
H        0.16200000       6.77490000      -0.27410000
