20
Properties=species:S:1:pos:R:3 gdb_112650=T pbc="F F F"
C        0.00370000       1.42310000      -0.08240000
O        0.01100000       0.01630000       0.09270000
C       -1.23560000      -0.57760000      -0.03040000
O       -1.70300000      -0.49810000      -1.39450000
C       -1.55550000      -1.75920000      -1.91360000
C       -1.79480000      -1.86580000      -3.37980000
N       -1.25090000      -2.70100000      -1.12030000
C       -1.15230000      -2.10660000       0.22440000
C        0.09180000      -2.57670000       0.97180000
H        1.02110000       1.77200000       0.10490000
H       -0.29500000       1.69870000      -1.10020000
H       -0.67980000       1.90790000       0.63060000
H       -1.97750000      -0.04910000       0.58310000
H       -2.80490000      -1.52200000      -3.62480000
H       -1.09290000      -1.22770000      -3.92590000
H       -1.67380000      -2.90100000      -3.69710000
H       -2.04330000      -2.41350000       0.78830000
H        0.99750000      -2.29240000       0.43340000
H        0.13630000      -2.13990000       1.97360000
H        0.06500000      -3.66510000       1.06490000
