15
Properties=species:S:1:pos:R:3 gdb_19811=T pbc="F F F"
O       -0.05180000       0.00730000       0.09490000
C       -0.00900000       1.20530000       0.03530000
N       -1.00570000       2.17300000       0.00490000
C       -0.09300000       3.31840000       0.02620000
C        0.41660000       3.86630000       1.39030000
C        0.53060000       2.78260000       2.42340000
C        1.57870000       2.86700000       1.35380000
C        1.08280000       2.30990000      -0.00940000
H       -1.98220000       2.09020000       0.25270000
H       -0.24990000       4.05740000      -0.75910000
H        0.42790000       4.91720000       1.65130000
H        0.85360000       3.12590000       3.40090000
H       -0.17640000       1.95900000       2.45750000
H        2.62330000       3.02780000       1.58540000
H        1.80400000       2.29060000      -0.82300000
