17
Properties=species:S:1:pos:R:3 gdb_64973=T pbc="F F F"
O        0.01080000       1.39680000      -0.03740000
C       -0.00210000      -0.00200000       0.03130000
C       -0.62980000      -0.67500000       1.23850000
C       -1.36860000      -0.65160000      -0.06390000
C        1.12220000      -0.72980000      -0.65240000
O        1.19960000      -1.93530000      -0.62680000
C        2.13540000       0.16150000      -1.38710000
C        3.16390000      -0.57410000      -2.10040000
C        4.01850000      -1.17330000      -2.69370000
H        0.53950000       1.73420000       0.69380000
H       -0.18270000      -1.61000000       1.55450000
H       -0.96970000      -0.01140000       2.02600000
H       -2.19710000       0.03870000      -0.16820000
H       -1.42940000      -1.57180000      -0.63220000
H        1.57390000       0.82370000      -2.05820000
H        2.58380000       0.84070000      -0.64870000
H        4.77030000      -1.70920000      -3.21780000
