18
Properties=species:S:1:pos:R:3 gdb_95185=T pbc="F F F"
C       -0.34650000       1.47200000      -0.02190000
C        0.00500000      -0.00050000       0.02490000
O        0.76710000      -0.32810000      -1.15090000
C        0.87880000      -1.72320000      -1.33870000
C        1.41040000      -2.42460000      -0.09810000
C        2.66930000      -2.00470000       0.59180000
N        1.35890000      -1.69860000       1.16640000
C        0.92220000      -0.36060000       1.19550000
O        1.29850000       0.42060000       2.03340000
H        0.56240000       2.07580000      -0.06380000
H       -0.95970000       1.68350000      -0.90110000
H       -0.89790000       1.75300000       0.87810000
H       -0.90630000      -0.62040000       0.05300000
H       -0.10600000      -2.15250000      -1.58870000
H        1.53980000      -1.87400000      -2.19790000
H        1.12000000      -3.47060000      -0.01400000
H        3.26520000      -2.73650000       1.12920000
H        3.22400000      -1.16880000       0.17370000
