14
Properties=species:S:1:pos:R:3 gdb_47626=T pbc="F F F"
O        0.00490000      -0.01540000       0.17940000
C       -0.00800000       1.17860000       0.00240000
C       -1.30560000       1.97600000      -0.10920000
O       -1.16770000       3.14580000      -0.89140000
C       -0.17440000       4.02160000      -0.41560000
C        1.13820000       3.34610000      -0.16970000
C        1.23360000       2.00980000      -0.03620000
C        2.49130000       1.35590000       0.15190000
N        3.51530000       0.83860000       0.29960000
H       -2.06400000       1.35160000      -0.58460000
H       -1.64870000       2.21170000       0.91430000
H       -0.05450000       4.80150000      -1.17560000
H       -0.49440000       4.53240000       0.51390000
H        2.02160000       3.97460000      -0.09840000
