23
Properties=species:S:1:pos:R:3 gdb_108203=T pbc="F F F"
C        0.01860000       1.37340000       0.00660000
O       -0.05870000      -0.03530000      -0.00560000
C       -1.35780000      -0.57500000       0.01110000
C       -2.19390000      -0.28540000       1.28700000
C       -3.23310000      -1.45070000       1.29250000
C       -2.87240000      -2.25410000       0.02000000
C       -3.27610000      -1.42530000      -1.22290000
C       -2.23680000      -0.26010000      -1.22950000
C       -1.33980000      -2.11580000      -0.00480000
H        1.08050000       1.63170000      -0.00790000
H       -0.46230000       1.82550000      -0.87270000
H       -0.43370000       1.80850000       0.90930000
H       -1.54150000      -0.32060000       2.16490000
H       -2.66870000       0.69950000       1.26530000
H       -3.11950000      -2.07060000       2.18690000
H       -4.26780000      -1.09550000       1.27570000
H       -3.26810000      -3.27130000       0.01650000
H       -3.19340000      -2.02690000      -2.13300000
H       -4.30950000      -1.07080000      -1.16350000
H       -2.71020000       0.72410000      -1.17180000
H       -1.61480000      -0.27740000      -2.12970000
H       -0.87170000      -2.51760000      -0.90820000
H       -0.84120000      -2.53550000       0.87380000
