22
Properties=species:S:1:pos:R:3 gdb_97200=T pbc="F F F"
C        0.01230000       1.46500000       0.15120000
N        0.00940000       0.01260000       0.12100000
C       -1.07420000      -0.61510000      -0.05260000
C       -1.10690000      -2.12600000      -0.03090000
C       -2.10300000      -2.71320000      -1.03870000
C       -3.45760000      -2.02180000      -0.86900000
C       -3.29840000      -0.51290000      -1.03540000
C       -4.56630000       0.27400000      -0.74510000
O       -2.28580000       0.02120000      -0.15400000
H        0.89840000       1.82650000      -0.38100000
H       -0.88330000       1.92620000      -0.27960000
H        0.10480000       1.80810000       1.18960000
H       -0.08950000      -2.48710000      -0.18700000
H       -1.40950000      -2.43250000       0.98060000
H       -1.73620000      -2.55680000      -2.06160000
H       -2.19270000      -3.79470000      -0.89640000
H       -4.18450000      -2.38430000      -1.60420000
H       -3.86740000      -2.23420000       0.12720000
H       -2.97200000      -0.30930000      -2.06740000
H       -4.90430000       0.09050000       0.27950000
H       -4.38660000       1.34610000      -0.86040000
H       -5.36370000      -0.02130000      -1.43370000
