23
Properties=species:S:1:pos:R:3 gdb_105798=T pbc="F F F"
C        0.03150000       1.49750000       0.16650000
C       -0.06170000      -0.00900000      -0.11550000
C       -1.47370000      -0.52850000      -0.06520000
C       -2.12970000      -1.02980000       1.19930000
C       -3.37270000      -0.54480000       1.94800000
C       -1.98190000      -1.96740000       0.01670000
C       -2.89680000      -1.72090000      -1.21100000
C       -3.88710000      -0.59910000      -1.07160000
C       -2.42900000      -0.27640000      -1.27510000
H        1.06440000       1.85240000       0.09260000
H       -0.57010000       2.07060000      -0.54720000
H       -0.33650000       1.73130000       1.17090000
H        0.36980000      -0.22130000      -1.10390000
H        0.55040000      -0.55910000       0.61020000
H       -1.33380000      -1.27930000       1.90230000
H       -4.21870000      -1.22950000       1.83860000
H       -3.15130000      -0.47750000       3.01790000
H       -3.69390000       0.44930000       1.62610000
H       -1.39130000      -2.87300000       0.10090000
H       -2.95560000      -2.43490000      -2.02250000
H       -4.48450000      -0.43980000      -1.96610000
H       -4.42530000      -0.39330000      -0.15890000
H       -2.08860000       0.27290000      -2.14450000
