20
Properties=species:S:1:pos:R:3 gdb_22075=T pbc="F F F"
C       -0.47640000       1.37670000       0.18570000
C       -0.04240000      -0.07340000      -0.04070000
C        0.90420000      -0.32560000      -1.26480000
C        2.09620000      -0.62780000      -0.30400000
C        2.85760000      -1.93140000      -0.48990000
O        2.97180000       0.49790000      -0.30990000
C        1.09190000      -0.55470000       0.84540000
N        1.26800000      -0.84960000       2.06350000
O        0.09650000      -0.64110000       2.81820000
H        0.38950000       2.04470000       0.15480000
H       -1.17980000       1.69170000      -0.59230000
H       -0.96170000       1.48660000       1.15910000
H       -0.91500000      -0.73380000      -0.00370000
H        0.61530000      -1.18230000      -1.87680000
H        1.08130000       0.53990000      -1.90530000
H        3.44300000      -1.89100000      -1.41370000
H        3.54120000      -2.09980000       0.34940000
H        2.17590000      -2.78570000      -0.53980000
H        3.49710000       0.45530000       0.49760000
H        0.37170000      -0.91100000       3.70100000
