16
Properties=species:S:1:pos:R:3 gdb_123823=T pbc="F F F"
C       -0.01970000       1.49370000       0.09970000
C        1.37860000       2.14380000      -0.06070000
C        2.15730000       1.35950000      -1.05870000
C        1.96490000       0.03460000      -1.32530000
C        2.99480000      -0.24960000      -2.26280000
N        3.72950000       0.80360000      -2.53250000
O        3.19160000       1.84100000      -1.75050000
C        0.90320000      -0.70430000      -0.65790000
C       -0.01140000      -0.02230000       0.04510000
H       -0.47230000       1.83930000       1.03390000
H       -0.67680000       1.85930000      -0.70460000
H        1.28830000       3.19380000      -0.35250000
H        1.91780000       2.12840000       0.89770000
H        3.22700000      -1.18230000      -2.75850000
H        0.86970000      -1.78600000      -0.73280000
H       -0.82100000      -0.54390000       0.54520000
