22
Properties=species:S:1:pos:R:3 gdb_115791=T pbc="F F F"
C        0.00500000       1.49960000      -0.03780000
C       -0.03250000      -0.00490000       0.04990000
C       -1.31430000      -0.73760000      -0.33680000
C       -1.15400000      -2.16890000       0.22220000
C       -0.20960000      -2.02560000       1.44240000
C        0.59940000      -3.27900000       1.74950000
O       -0.31350000      -4.33300000       2.02430000
C        0.63690000      -0.80280000       1.11550000
N        1.23680000      -0.70150000      -0.22950000
H        0.97250000       1.88020000       0.29830000
H       -0.14540000       1.83490000      -1.07070000
H       -0.78270000       1.94960000       0.57720000
H       -2.16430000      -0.23030000       0.13680000
H       -1.50060000      -0.72280000      -1.41730000
H       -2.10610000      -2.62820000       0.49210000
H       -0.70090000      -2.83120000      -0.52440000
H       -0.80580000      -1.79210000       2.33530000
H        1.24200000      -3.52390000       0.88730000
H        1.26390000      -3.09340000       2.60870000
H        0.19170000      -5.13190000       2.20020000
H        1.22040000      -0.34050000       1.90810000
H        1.08850000      -1.55310000      -0.76590000
