12
Properties=species:S:1:pos:R:3 gdb_679=T pbc="F F F"
C       -0.02420000       1.50580000      -0.04500000
O        1.05400000       1.96740000       0.76230000
C        2.05860000       0.96210000       0.84820000
C        1.35070000      -0.34600000       0.57270000
O        0.15760000      -0.50670000       1.34670000
C        0.04190000      -0.00440000       0.01150000
H       -0.94970000       1.92090000       0.36710000
H        0.07500000       1.83780000      -1.09190000
H        2.85490000       1.11220000       0.10030000
H        2.50230000       1.01980000       1.84750000
H        1.90200000      -1.24990000       0.32930000
H       -0.49750000      -0.62360000      -0.69970000
