23
Properties=species:S:1:pos:R:3 gdb_52784=T pbc="F F F"
C       -0.03790000       1.50190000      -0.01050000
C        0.00270000       0.04610000      -0.01410000
C        0.03510000      -1.15900000      -0.01580000
C        0.07010000      -2.61310000      -0.01320000
C        1.05800000      -3.13930000      -1.06660000
C        0.27380000      -3.29930000       1.38450000
C       -0.86900000      -4.29650000       1.04880000
C       -1.86960000      -4.64520000       2.14010000
C       -1.31970000      -3.34020000      -0.08940000
H        0.64560000       1.92320000      -0.75640000
H       -1.04320000       1.87440000      -0.23770000
H        0.25010000       1.90740000       0.96610000
H        2.06920000      -2.77260000      -0.86520000
H        1.08430000      -4.23400000      -1.06460000
H        0.76890000      -2.80600000      -2.06800000
H        1.26900000      -3.70610000       1.58420000
H       -0.00290000      -2.62580000       2.20000000
H       -0.45490000      -5.21850000       0.62670000
H       -2.30060000      -3.73900000       2.58090000
H       -2.69500000      -5.24910000       1.74620000
H       -1.39640000      -5.21570000       2.94740000
H       -2.12970000      -2.68040000       0.23270000
H       -1.58450000      -3.77940000      -1.05530000
