21
Properties=species:S:1:pos:R:3 gdb_111145=T pbc="F F F"
C       -0.68570000       1.05400000      -0.10790000
O       -0.90650000      -0.26480000      -0.55470000
C        0.07830000      -0.71360000      -1.44390000
C        1.43040000      -1.26980000      -0.87740000
C        0.58500000      -2.44660000      -0.29430000
C        0.04360000      -2.23070000      -1.74830000
C        1.52890000      -2.10820000      -2.20480000
C        1.91200000      -1.44550000      -3.52420000
O        2.20770000      -3.35040000      -2.11870000
H        0.24170000       1.14070000       0.47760000
H       -0.62900000       1.76350000      -0.94870000
H       -1.53160000       1.32820000       0.52690000
H        0.14130000      -0.02180000      -2.29150000
H        2.23340000      -0.71280000      -0.38960000
H        1.11320000      -3.37740000      -0.10940000
H       -0.10470000      -2.18250000       0.50370000
H       -0.75270000      -2.77820000      -2.25480000
H        1.41510000      -0.49230000      -3.70880000
H        2.99300000      -1.25490000      -3.54350000
H        1.68140000      -2.12160000      -4.35310000
H        3.14560000      -3.18240000      -2.25560000
