21
Properties=species:S:1:pos:R:3 gdb_64185=T pbc="F F F"
C       -0.12790000       1.44510000       0.11930000
C        0.01550000      -0.07650000       0.01050000
C       -1.33560000      -0.71280000      -0.30750000
C        1.22330000      -0.48310000      -0.88680000
C        2.12330000      -0.59010000       0.36930000
C        0.84680000      -0.63910000       1.25490000
O        0.80550000       0.06620000       2.47300000
C        0.45080000      -2.05610000       1.61950000
O        0.67550000      -3.02760000       0.94250000
H        0.83540000       1.94760000       0.26570000
H       -0.55800000       1.84510000      -0.80490000
H       -0.79060000       1.72450000       0.94520000
H       -1.72460000      -0.31960000      -1.25380000
H       -1.26150000      -1.79860000      -0.40540000
H       -2.07570000      -0.48800000       0.46970000
H        1.07130000      -1.45920000      -1.35080000
H        1.51960000       0.23730000      -1.65340000
H        2.78450000      -1.45510000       0.43840000
H        2.70040000       0.31870000       0.56230000
H        1.06610000       0.97720000       2.30890000
H       -0.08490000      -2.12510000       2.59130000
