16
Properties=species:S:1:pos:R:3 gdb_55184=T pbc="F F F"
N        0.35380000       0.60120000       0.97360000
C       -0.00100000      -0.06930000      -0.14970000
O        0.62330000      -0.04040000      -1.19260000
C       -1.26770000      -0.93290000      -0.03620000
O       -1.02650000      -2.24030000       0.57060000
C       -2.18870000      -2.12430000       1.40920000
C       -1.86630000      -1.53870000       2.78730000
O       -1.99350000      -0.18050000       2.26600000
C       -2.41040000      -0.66600000       0.96560000
H        1.17140000       1.18770000       0.93520000
H       -0.26080000       0.61130000       1.77580000
H       -1.64530000      -1.06000000      -1.05730000
H       -2.88030000      -2.96210000       1.31420000
H       -2.61630000      -1.72260000       3.56500000
H       -0.86130000      -1.75390000       3.16150000
H       -3.32800000      -0.19080000       0.61850000
