17
Properties=species:S:1:pos:R:3 gdb_64925=T pbc="F F F"
C       -0.10920000       1.51450000      -0.03900000
C        0.03010000       0.01630000       0.08310000
O        1.32350000      -0.57320000      -0.09550000
C        0.78340000      -0.64090000       1.21410000
C        1.46580000       0.16840000       2.29930000
C        0.37200000      -2.02170000       1.68380000
O        0.28390000      -2.99610000       0.98520000
C       -1.06970000      -0.76740000      -0.59880000
O       -2.12540000      -0.27100000      -0.90230000
H        0.67410000       2.05140000       0.49370000
H       -0.06490000       1.79740000      -1.09500000
H       -1.08690000       1.82240000       0.33900000
H        1.86080000       1.10510000       1.90950000
H        0.77180000       0.38870000       3.11680000
H        2.30460000      -0.40050000       2.71520000
H        0.16670000      -2.07090000       2.77660000
H       -0.81220000      -1.81910000      -0.81610000
