19
Properties=species:S:1:pos:R:3 gdb_35055=T pbc="F F F"
C       -0.22330000      -1.23020000      -0.14830000
C       -0.10730000      -0.03470000      -0.07650000
C       -0.01770000       1.39250000      -0.00270000
C        0.47130000       2.10130000       1.26390000
C        0.96590000       1.28610000       2.45440000
C        2.46090000       0.98170000       2.32660000
O        2.76240000       0.43660000       1.05420000
C        2.64010000       1.39000000       0.01690000
C        1.31410000       2.12840000       0.01350000
H       -0.30530000      -2.28660000      -0.21310000
H       -0.81180000       1.91040000      -0.53400000
H       -0.07450000       3.00710000       1.50580000
H        0.78350000       1.83660000       3.38300000
H        0.41440000       0.34230000       2.51980000
H        3.05330000       1.89750000       2.49530000
H        2.77490000       0.23600000       3.06250000
H        3.44820000       2.13820000       0.09980000
H        2.78700000       0.83860000      -0.91730000
H        1.33320000       3.05360000      -0.55540000
