18
Properties=species:S:1:pos:R:3 gdb_77283=T pbc="F F F"
C       -0.19730000       1.59110000      -0.08650000
C       -0.06320000       0.08370000      -0.01660000
C        1.18410000      -0.61120000      -0.41980000
O        2.24560000       0.20510000      -0.83380000
C        3.48670000      -0.33670000      -0.74940000
N        4.48130000       0.33680000      -1.12700000
C        0.78080000      -0.62940000       1.05810000
C        1.54950000       0.13600000       2.06780000
O        1.69090000      -0.23590000       3.20900000
H        0.76550000       2.09560000       0.00200000
H       -0.62820000       1.87720000      -1.05100000
H       -0.86040000       1.96010000       0.70160000
H       -0.97630000      -0.45450000      -0.25470000
H        1.11910000      -1.55480000      -0.95680000
H        3.49060000      -1.35490000      -0.34020000
H        5.33600000      -0.20190000      -1.00360000
H        0.39330000      -1.56700000       1.44300000
H        2.00230000       1.08520000       1.71690000
