18
Properties=species:S:1:pos:R:3 gdb_52434=T pbc="F F F"
O       -0.67740000       0.87690000       0.76610000
C        0.03490000       1.07580000      -0.18220000
C        1.32530000       1.86660000      -0.14520000
C        1.34260000       2.97910000      -1.20510000
C        2.67890000       3.70600000      -1.24930000
O        2.60440000       4.69990000      -2.25740000
C        3.78700000       5.45060000      -2.36340000
C        3.63270000       6.44760000      -3.42690000
N        3.54180000       7.24250000      -4.25890000
H       -0.22340000       0.67190000      -1.18970000
H        1.46060000       2.26090000       0.86620000
H        2.14460000       1.16010000      -0.34650000
H        1.13990000       2.56060000      -2.19790000
H        0.55150000       3.70850000      -1.00070000
H        2.90190000       4.16900000      -0.27360000
H        3.49690000       2.99960000      -1.47060000
H        4.02220000       5.97450000      -1.42210000
H        4.65400000       4.81320000      -2.60400000
