19
Properties=species:S:1:pos:R:3 gdb_81232=T pbc="F F F"
O        0.20150000       1.46170000      -0.03300000
C        0.06160000       0.06760000       0.05150000
C       -0.00210000      -0.66490000       1.41030000
C       -1.03770000       0.22960000       2.18450000
C       -2.14440000       0.14110000       1.10290000
C       -2.75040000       1.01790000      -0.04960000
C       -2.41670000      -0.18730000      -1.02760000
C       -1.35270000      -0.54700000       0.01420000
O       -0.76540000      -1.70920000       0.69290000
H        1.13220000       1.66960000      -0.15640000
H        0.71060000      -0.46580000      -0.65020000
H        0.86710000      -1.06100000       1.93530000
H       -1.34310000      -0.19130000       3.14410000
H       -0.61440000       1.22400000       2.34400000
H       -2.93040000      -0.54310000       1.43510000
H       -3.80260000       1.29010000       0.04480000
H       -2.15430000       1.89750000      -0.28830000
H       -3.24010000      -0.90510000      -1.06330000
H       -2.08060000       0.03980000      -2.04170000
