19
Properties=species:S:1:pos:R:3 gdb_64013=T pbc="F F F"
C        0.04520000       1.47910000       0.11650000
C       -0.08820000      -0.03370000      -0.04100000
C       -1.56290000      -0.44200000      -0.15360000
C        0.73410000      -0.54080000      -1.23890000
C        1.01380000      -2.01100000      -1.13760000
C        1.01280000      -2.62600000       0.04530000
C        0.80420000      -1.88060000       1.30650000
O        0.99870000      -2.35940000       2.39510000
O        0.43690000      -0.57700000       1.20480000
H        1.09070000       1.75640000       0.27540000
H       -0.32040000       1.98970000      -0.77970000
H       -0.53580000       1.82510000       0.97530000
H       -2.03560000       0.06310000      -1.00170000
H       -1.66980000      -1.52070000      -0.29430000
H       -2.09490000      -0.15910000       0.75820000
H        0.19530000      -0.31350000      -2.16550000
H        1.68680000       0.00430000      -1.30150000
H        1.24320000      -2.55790000      -2.04840000
H        1.23110000      -3.67990000       0.16790000
