20
Properties=species:S:1:pos:R:3 gdb_63898=T pbc="F F F"
C        0.47360000       1.36840000      -0.03280000
C        0.00450000      -0.09810000      -0.04200000
C       -1.53380000      -0.14110000       0.00950000
C        0.56150000      -0.94620000      -1.21860000
N        1.47260000      -2.00530000      -0.70000000
C        2.63900000      -1.46810000      -0.02060000
C        1.45610000      -1.92620000       0.77440000
C        0.53200000      -0.83600000       1.21350000
O        0.19520000      -0.59830000       2.34690000
H        1.56200000       1.45920000      -0.09770000
H        0.04380000       1.91130000      -0.88140000
H        0.14950000       1.86080000       0.88890000
H       -1.96020000       0.37890000      -0.85480000
H       -1.90610000      -1.17060000       0.00290000
H       -1.89120000       0.34130000       0.92320000
H       -0.25250000      -1.45580000      -1.74200000
H        1.10080000      -0.34390000      -1.95630000
H        3.52090000      -2.10200000      -0.03590000
H        2.84520000      -0.40230000      -0.07990000
H        1.50030000      -2.84150000       1.35450000
