16
Properties=species:S:1:pos:R:3 gdb_87542=T pbc="F F F"
C       -0.01840000       1.57730000      -0.04060000
C       -0.08150000       0.07960000       0.09270000
O        1.14350000      -0.64820000      -0.10330000
C        0.58340000      -0.63840000       1.18850000
C        1.29850000      -0.17880000       2.44670000
C        0.35640000      -0.19000000       3.57530000
N        0.95610000      -1.49360000       3.16060000
C        0.23260000      -1.91290000       1.95760000
O       -0.30480000      -2.94570000       1.72160000
H        0.85930000       1.98130000       0.47010000
H        0.03390000       1.86450000      -1.09550000
H       -0.91620000       2.03450000       0.38840000
H       -0.94550000      -0.40980000      -0.35830000
H        2.30660000       0.21210000       2.48660000
H        0.70310000       0.12880000       4.55290000
H       -0.70260000      -0.02310000       3.39290000
