15
Properties=species:S:1:pos:R:3 gdb_5782=T pbc="F F F"
C       -0.30120000       1.14650000      -0.45440000
C        1.03650000       1.30580000       0.21560000
C        0.39150000      -0.05630000       0.16050000
C       -0.15240000      -0.69770000       1.37140000
C       -0.05720000      -0.34590000       2.67890000
O       -0.75340000      -1.25890000       3.42570000
C       -1.23010000      -2.13320000       2.51360000
N       -0.91730000      -1.86580000       1.29040000
H       -1.17380000       1.53250000       0.06000000
H       -0.35210000       1.20160000      -1.53590000
H        1.91110000       1.47420000      -0.40240000
H        1.06530000       1.82250000       1.16860000
H        0.80730000      -0.76360000      -0.55020000
H        0.42750000       0.44500000       3.22340000
H       -1.81490000      -2.95730000       2.89150000
