20
Properties=species:S:1:pos:R:3 gdb_91962=T pbc="F F F"
O        0.08610000       1.39280000      -0.12920000
C        0.03230000      -0.01590000       0.00610000
C        0.61960000      -0.49250000       1.36470000
C       -0.57940000      -0.52870000       2.29580000
N       -1.42860000       0.68360000       2.17880000
C       -1.81330000      -0.56860000       1.47150000
C       -1.41310000      -0.54430000       0.02580000
C       -2.36380000      -0.23130000      -1.09190000
C       -1.86130000      -1.64280000      -0.90700000
H       -0.44190000       1.73450000       0.60890000
H        0.59580000      -0.41770000      -0.84060000
H        1.03660000      -1.50270000       1.27610000
H        1.41440000       0.18190000       1.69450000
H       -0.51600000      -1.02250000       3.26000000
H       -1.99140000       0.79110000       3.01850000
H       -2.71140000      -1.09060000       1.78660000
H       -3.39880000      -0.02060000      -0.84310000
H       -1.97650000       0.35250000      -1.91960000
H       -1.13940000      -2.03050000      -1.61850000
H       -2.55310000      -2.38900000      -0.52790000
