22
Properties=species:S:1:pos:R:3 gdb_103855=T pbc="F F F"
C        0.10730000       1.50700000       0.11010000
C       -0.02550000       0.00880000       0.40940000
C       -1.39670000      -0.55620000       0.06030000
C       -2.55110000      -0.01420000       0.88450000
N       -1.61940000      -0.77320000      -1.38140000
C       -1.54640000      -1.94090000      -0.48260000
C       -0.42550000      -2.90290000      -0.70600000
C       -0.25260000      -4.08420000       0.14990000
O       -0.80740000      -4.20890000      -1.15870000
H        1.12670000       1.85260000       0.30590000
H       -0.12240000       1.70570000      -0.94130000
H       -0.56670000       2.11120000       0.72540000
H        0.73890000      -0.53030000      -0.15630000
H        0.17710000      -0.18240000       1.47140000
H       -2.67890000       1.06240000       0.72960000
H       -3.49210000      -0.50460000       0.61540000
H       -2.38270000      -0.17630000       1.95510000
H       -2.58520000      -0.58020000      -1.63510000
H       -2.47840000      -2.45020000      -0.23860000
H        0.44670000      -2.49780000      -1.21580000
H        0.73860000      -4.51510000       0.28630000
H       -0.94820000      -4.25760000       0.97080000
