21
Properties=species:S:1:pos:R:3 gdb_71825=T pbc="F F F"
C       -0.06800000       1.53320000      -0.04620000
C       -0.04230000       0.02970000      -0.01620000
C        0.71000000      -0.79750000      -1.05860000
C       -0.22320000      -2.02380000      -0.72350000
C        0.46610000      -2.80010000       0.37730000
C        0.47300000      -2.05340000       1.48470000
C       -0.33130000      -0.80780000       1.27380000
C       -0.91550000      -0.10240000       2.47740000
C       -1.15070000      -1.00870000       0.02090000
H        0.92460000       1.94210000       0.18030000
H       -0.35150000       1.89860000      -1.04040000
H       -0.77010000       1.96100000       0.67360000
H        0.49420000      -0.40550000      -2.05720000
H        1.79010000      -0.94730000      -0.94870000
H       -0.60760000      -2.59170000      -1.56940000
H        1.01060000      -3.72260000       0.21480000
H        0.99250000      -2.27030000       2.41100000
H       -0.14320000       0.40530000       3.06700000
H       -1.66210000       0.64490000       2.19620000
H       -1.41180000      -0.82560000       3.13400000
H       -2.22950000      -0.90750000      -0.03930000
