18
Properties=species:S:1:pos:R:3 gdb_110284=T pbc="F F F"
C        0.24450000       1.32590000      -0.15980000
O       -0.17210000       0.00870000       0.16720000
C        0.52580000      -0.54400000       1.24940000
C        0.08980000      -1.99800000       1.49090000
C        1.45140000      -2.56450000       1.06250000
N        0.93780000      -2.67590000       2.42170000
C        1.57310000      -2.03420000       3.57180000
C        1.89760000      -1.14950000       0.77170000
O        2.81530000      -0.67470000       0.16310000
H        1.29480000       1.34870000      -0.47060000
H       -0.38880000       1.66010000      -0.98430000
H        0.10930000       2.00610000       0.69510000
H        0.51940000       0.12930000       2.11880000
H       -0.88990000      -2.39390000       1.24950000
H        1.71340000      -3.46690000       0.52070000
H        1.97760000      -1.02970000       3.39430000
H        0.83730000      -1.97400000       4.37910000
H        2.39260000      -2.67600000       3.90610000
