18
Properties=species:S:1:pos:R:3 gdb_76596=T pbc="F F F"
C        0.58960000       0.85880000       1.57210000
C        0.40180000      -0.23610000       0.54650000
C        0.12380000       0.01100000      -0.89530000
C       -0.00440000       1.38680000      -1.50900000
C        1.48910000      -0.59380000      -0.49330000
C        2.73300000       0.18300000      -0.60000000
O        2.87900000       1.37450000      -0.42390000
C        3.91590000      -0.63450000      -0.96820000
N        4.84030000      -1.26750000      -1.25490000
H        1.15190000       1.70590000       1.18000000
H       -0.38760000       1.21710000       1.91340000
H        1.12660000       0.47650000       2.44590000
H       -0.05960000      -1.13330000       0.95180000
H       -0.50760000      -0.73510000      -1.37160000
H        0.71290000       2.09610000      -1.09680000
H        0.15550000       1.33970000      -2.59080000
H       -1.01470000       1.77450000      -1.33920000
H        1.61970000      -1.64990000      -0.69950000
