18
Properties=species:S:1:pos:R:3 gdb_22592=T pbc="F F F"
C       -0.02500000       1.46870000       0.02200000
C       -0.01170000      -0.03140000      -0.01660000
C        0.57940000      -0.98640000      -1.12980000
C       -0.00470000      -1.97210000      -0.05770000
C        0.63350000      -1.01220000       1.02040000
O        2.03030000      -0.91530000       1.11150000
C       -1.17140000      -1.00950000       0.00000000
N       -2.42800000      -0.92460000       0.02640000
O       -3.02650000      -2.21310000       0.00870000
H        0.99610000       1.86100000       0.05010000
H       -0.52700000       1.87770000      -0.86010000
H       -0.55580000       1.83050000       0.90850000
H        0.08020000      -0.96740000      -2.09960000
H        1.66510000      -0.98040000      -1.21260000
H       -0.02140000      -3.05850000      -0.07360000
H        0.16150000      -1.03350000       2.01020000
H        2.35100000      -1.65490000       1.63670000
H       -3.96350000      -1.99160000       0.02300000
