21
Properties=species:S:1:pos:R:3 gdb_111305=T pbc="F F F"
C       -0.33520000       1.56170000       0.18820000
C       -0.06670000       0.06340000       0.11870000
O       -1.21310000      -0.66210000       0.54200000
C        0.38550000      -0.54260000      -1.21700000
C        1.73030000      -0.02100000      -1.63150000
C        1.66110000      -1.08920000      -0.57440000
C        1.24740000      -0.51600000       0.78650000
C        2.20660000       0.38410000       1.54060000
O        1.53800000       0.81350000       2.72480000
H        0.48410000       2.15010000      -0.23460000
H       -1.24840000       1.79690000      -0.36700000
H       -0.45960000       1.87560000       1.22970000
H       -1.40110000      -0.39650000       1.44950000
H       -0.29470000      -1.02860000      -1.90520000
H        2.07170000      -0.36320000      -2.60350000
H        2.04140000       0.99340000      -1.39810000
H        2.12720000      -2.05640000      -0.71910000
H        0.92770000      -1.31920000       1.45650000
H        3.12340000      -0.17770000       1.78360000
H        2.50760000       1.24480000       0.92530000
H        2.11050000       1.43150000       3.18850000
