12
Properties=species:S:1:pos:R:3 gdb_6636=T pbc="F F F"
N        0.28420000       0.77480000       0.64780000
C       -0.34980000       0.53740000      -0.53370000
O       -0.09850000       1.11940000      -1.56980000
C       -1.37810000      -0.49660000      -0.45000000
C       -2.23680000      -1.33920000      -0.44400000
C       -3.28100000      -2.35900000      -0.45090000
C       -3.48460000      -2.98240000       0.86330000
N       -3.64980000      -3.47640000       1.89330000
H        1.00650000       1.47590000       0.67090000
H        0.04850000       0.27390000       1.48680000
H       -4.23220000      -1.92280000      -0.78190000
H       -3.03590000      -3.14510000      -1.17660000
