19
Properties=species:S:1:pos:R:3 gdb_3505=T pbc="F F F"
C       -0.05470000       1.56480000      -0.00240000
C       -0.19230000       0.03850000      -0.07150000
C        0.62180000      -0.56340000      -1.20980000
C        2.17930000      -0.72340000      -1.13770000
C        1.96900000      -1.93900000      -0.18750000
C        0.90770000      -2.09750000      -1.31670000
C        2.04300000      -1.73090000      -2.31580000
H        0.98230000       1.86010000       0.19040000
H       -0.36070000       2.03350000      -0.94450000
H       -0.67510000       1.98520000       0.79520000
H        0.08620000      -0.39370000       0.89510000
H       -1.24780000      -0.22330000      -0.22550000
H        0.28620000      -0.12500000      -2.15940000
H        2.92250000       0.07000000      -1.03790000
H        2.77130000      -2.68220000      -0.17520000
H        1.61350000      -1.74150000       0.82470000
H        0.17180000      -2.89720000      -1.42240000
H        1.73530000      -1.32100000      -3.28220000
H        2.84890000      -2.46150000      -2.42710000
