13
Properties=species:S:1:pos:R:3 gdb_129065=T pbc="F F F"
N       -0.05320000       1.34200000      -0.15770000
C       -0.01480000       0.06580000       0.00830000
C        1.19570000      -0.75610000       0.15790000
N        1.23180000      -2.03880000       0.32490000
N        0.05820000      -2.68920000       0.36710000
C       -1.16320000      -2.06180000       0.24170000
C       -1.23670000      -0.71940000       0.06560000
C       -2.30970000      -2.91240000       0.31010000
N       -3.21750000      -3.62700000       0.36960000
H        0.89350000       1.72880000      -0.17340000
H        2.16650000      -0.26720000       0.12950000
H        0.12310000      -3.68550000       0.49730000
H       -2.19340000      -0.22450000      -0.03300000
