17
Properties=species:S:1:pos:R:3 gdb_49180=T pbc="F F F"
O       -0.79510000       1.15300000      -0.22570000
C        0.31450000       0.89430000       0.17970000
C        1.49500000       1.77070000      -0.06860000
N        2.61180000       1.41160000       0.45820000
C        3.73820000       2.24530000       0.19240000
C        4.19340000       2.45030000      -1.24760000
C        3.56280000       3.58630000      -0.49360000
C        2.14320000       4.02070000      -0.80490000
N        1.25880000       2.86190000      -0.85770000
H        0.55430000      -0.00800000       0.77240000
H        4.52360000       2.14820000       0.93400000
H        5.26060000       2.48040000      -1.43660000
H        3.60890000       1.96210000      -2.01990000
H        4.21100000       4.39560000      -0.17220000
H        1.81660000       4.72830000      -0.02700000
H        2.08990000       4.54820000      -1.76530000
H        0.27870000       3.01710000      -1.05250000
