23
Properties=species:S:1:pos:R:3 gdb_113718=T pbc="F F F"
C       -0.45500000       1.56060000      -0.74770000
C       -0.57510000       0.03180000      -0.71770000
C        0.50840000      -0.64510000      -1.53430000
C        1.87260000      -0.91870000      -0.94220000
C        0.97380000      -2.06890000      -1.31600000
C        0.37530000      -2.98670000      -0.25280000
C       -0.90810000      -3.67690000      -0.76090000
C        1.36090000      -3.97880000       0.18260000
C        2.16600000      -4.80600000       0.51940000
H        0.50860000       1.88580000      -0.34200000
H       -0.52740000       1.94110000      -1.77250000
H       -1.24780000       2.03340000      -0.15960000
H       -0.53370000      -0.30990000       0.32290000
H       -1.56300000      -0.26130000      -1.09740000
H        0.51110000      -0.33170000      -2.57680000
H        2.76170000      -0.73220000      -1.53430000
H        1.99940000      -0.71830000       0.11810000
H        1.25020000      -2.60920000      -2.21820000
H        0.10960000      -2.38040000       0.62250000
H       -0.69130000      -4.28630000      -1.64340000
H       -1.33020000      -4.33160000       0.00610000
H       -1.65710000      -2.92850000      -1.03480000
H        2.87980000      -5.52930000       0.82690000
