20
Properties=species:S:1:pos:R:3 gdb_68328=T pbc="F F F"
C       -0.43700000       0.96020000      -0.03870000
C        0.01080000      -0.46920000       0.06320000
C        0.98430000      -1.26800000      -0.86490000
C        0.40190000      -2.26250000       0.17340000
C        0.66650000      -1.20170000       1.26900000
N       -0.97760000      -1.64540000       0.04640000
C       -1.75100000      -1.89470000      -1.16390000
C       -3.10450000      -1.20990000      -1.05260000
O       -3.72420000      -0.77110000      -1.98640000
H        0.42060000       1.63560000       0.04340000
H       -0.92720000       1.15600000      -0.99850000
H       -1.14240000       1.20140000       0.76280000
H        0.69490000      -1.39830000      -1.90800000
H        2.04850000      -1.02850000      -0.78700000
H        0.53330000      -3.34400000       0.23320000
H        1.70930000      -0.96100000       1.48210000
H        0.04690000      -1.28160000       2.16290000
H       -1.30250000      -1.61180000      -2.12680000
H       -1.95670000      -2.97540000      -1.21010000
H       -3.48710000      -1.15600000      -0.00910000
