26
Properties=species:S:1:pos:R:3 gdb_76616=T pbc="F F F"
C       -0.04090000       1.35770000       0.90370000
C        0.19460000      -0.07490000       0.47250000
C        0.22890000      -0.46140000      -0.96980000
N        1.43900000      -0.53150000      -0.16180000
C        2.51160000       0.41380000      -0.43010000
C       -0.34310000      -1.74010000      -1.58550000
C       -1.78080000      -1.45220000      -2.05470000
C        0.53550000      -2.11280000      -2.79580000
C       -0.34440000      -2.90460000      -0.58160000
H        0.26230000       2.08170000       0.14380000
H       -1.10670000       1.51470000       1.10110000
H        0.50120000       1.58790000       1.82800000
H       -0.18900000      -0.80480000       1.18360000
H        0.17490000       0.39140000      -1.65460000
H        2.17880000       1.39450000      -0.80380000
H        3.09480000       0.57580000       0.48270000
H        3.17980000      -0.01860000      -1.18200000
H       -1.80670000      -0.63990000      -2.79000000
H       -2.22190000      -2.33850000      -2.52370000
H       -2.42050000      -1.16360000      -1.21360000
H        1.56060000      -2.32740000      -2.47730000
H        0.14560000      -3.00010000      -3.30640000
H        0.57140000      -1.29660000      -3.52660000
H       -1.05910000      -2.73640000       0.23060000
H       -0.63020000      -3.83640000      -1.08070000
H        0.64850000      -3.03590000      -0.14330000
