19
Properties=species:S:1:pos:R:3 gdb_52193=T pbc="F F F"
O       -0.43820000       0.60340000       0.84770000
C        0.06920000       1.00690000      -0.16660000
C        1.37540000       1.76250000      -0.24620000
C        1.20940000       3.11560000      -0.96420000
C        2.52700000       3.83690000      -1.14200000
C        3.43510000       3.51560000      -2.29370000
C        2.72090000       4.86110000      -2.25620000
C        1.67100000       5.14830000      -3.18920000
C        0.79060000       5.40130000      -3.96960000
H       -0.42230000       0.84380000      -1.15560000
H        1.77070000       1.88520000       0.76660000
H        2.08350000       1.14350000      -0.81600000
H        0.74400000       2.96180000      -1.94440000
H        0.51900000       3.74870000      -0.39340000
H        3.02230000       4.10010000      -0.21070000
H        4.50800000       3.51370000      -2.13920000
H        3.08260000       2.80390000      -3.03250000
H        3.33910000       5.71650000      -1.99970000
H        0.01700000       5.62660000      -4.66100000
