16
Properties=species:S:1:pos:R:3 gdb_23415=T pbc="F F F"
O       -0.25050000       1.43590000      -0.01020000
N        0.03440000       0.06020000       0.00480000
C       -1.03170000      -0.62860000       0.01900000
C       -2.50360000      -0.16230000      -0.03980000
N       -3.27540000      -1.32600000      -0.54910000
C       -2.49390000      -2.31490000      -0.40090000
N       -2.26050000      -3.55910000      -0.98770000
C       -0.78690000      -3.22820000      -0.99490000
C       -1.08800000      -2.13280000       0.09240000
H        0.62870000       1.82630000      -0.05870000
H       -2.85580000       0.17970000       0.94300000
H       -2.61610000       0.68250000      -0.72550000
H       -2.74090000      -3.78860000      -1.85110000
H       -0.14950000      -4.05770000      -0.68520000
H       -0.44600000      -2.80800000      -1.94540000
H       -0.88010000      -2.51070000       1.09670000
