17
Properties=species:S:1:pos:R:3 gdb_6446=T pbc="F F F"
C       -0.04510000       1.51700000       0.15540000
N       -0.03750000       0.07260000       0.14440000
C       -1.26420000      -0.64270000       0.52490000
C       -0.39270000      -1.69840000       1.27170000
N       -0.12740000      -2.87310000       0.45150000
C        0.74500000      -0.63700000       1.16670000
C       -0.82720000      -2.02680000       2.63480000
N       -1.16610000      -2.33090000       3.69840000
H        0.95650000       1.89320000      -0.07720000
H       -0.72830000       1.88840000      -0.61540000
H       -0.35680000       1.94570000       1.12730000
H       -1.91440000      -0.08460000       1.21580000
H       -1.85710000      -1.02810000      -0.31100000
H        0.58960000      -3.44660000       0.88820000
H       -0.96180000      -3.45100000       0.39270000
H        1.71460000      -1.01810000       0.83000000
H        0.87140000      -0.07680000       2.10580000
