19
Properties=species:S:1:pos:R:3 gdb_103955=T pbc="F F F"
C       -0.18500000       1.64480000       0.20150000
C       -0.02370000       0.13580000       0.18240000
C       -1.31100000      -0.57540000      -0.25080000
O       -1.64340000      -0.25030000      -1.58450000
O        1.02730000      -0.33160000      -0.76210000
C        1.57690000      -1.18390000       0.25590000
C        2.18200000      -0.32840000       1.30810000
O        2.78930000       0.88720000       1.00600000
C        0.67990000      -0.58200000       1.33540000
H        0.75090000       2.14640000       0.44540000
H       -0.55810000       1.98990000      -0.76650000
H       -0.92350000       1.91810000       0.96310000
H       -1.18470000      -1.66090000      -0.11760000
H       -2.14960000      -0.25410000       0.37670000
H       -0.86020000      -0.46670000      -2.10610000
H        1.84520000      -2.19660000      -0.02360000
H        2.71230000      -0.86050000       2.09350000
H        2.63980000       1.02940000       0.06140000
H        0.17720000      -1.04680000       2.17460000
