19
Properties=species:S:1:pos:R:3 gdb_60030=T pbc="F F F"
C        0.05090000       1.56260000      -0.01940000
C        0.02750000       0.03590000       0.05210000
O        0.56430000      -0.42550000       1.29350000
C       -1.38790000      -0.53130000      -0.02290000
C       -1.41540000      -2.07350000      -0.15180000
C       -0.74170000      -2.78440000       1.03760000
O        0.10700000      -3.62440000       0.91380000
C       -2.78760000      -2.56530000      -0.22950000
C       -3.91970000      -2.97020000      -0.24070000
H        1.07570000       1.93650000       0.07600000
H       -0.35020000       1.92020000      -0.97340000
H       -0.54340000       1.99100000       0.79370000
H        0.61640000      -0.37330000      -0.78430000
H        1.52440000      -0.38150000       1.25560000
H       -1.93480000      -0.23010000       0.87820000
H       -1.91890000      -0.10320000      -0.87820000
H       -0.86070000      -2.38190000      -1.04620000
H       -1.15380000      -2.49300000       2.02540000
H       -4.91680000      -3.33450000      -0.27270000
