21
Properties=species:S:1:pos:R:3 gdb_63705=T pbc="F F F"
C       -0.11040000       1.57010000       0.07480000
C        0.03490000       0.04970000       0.02940000
C       -1.31890000      -0.61690000      -0.22430000
C        1.14170000      -0.52740000      -0.92810000
C        1.79130000      -1.25740000       0.26370000
C        2.20000000      -0.23750000       1.30420000
C        0.75600000      -0.61810000       1.21940000
C        2.30250000      -2.58440000       0.23580000
C        2.72690000      -3.71060000       0.18800000
H        0.84320000       2.06900000       0.27120000
H       -0.49290000       1.95090000      -0.87920000
H       -0.81380000       1.87300000       0.85890000
H       -1.74530000      -0.28690000      -1.17820000
H       -1.22340000      -1.70720000      -0.25430000
H       -2.03370000      -0.36420000       0.56750000
H        0.73450000      -1.20700000      -1.67890000
H        1.78810000       0.20320000      -1.42520000
H        2.73720000      -0.64440000       2.15410000
H        2.54630000       0.74140000       0.98230000
H        0.24920000      -1.09750000       2.04980000
H        3.10450000      -4.70180000       0.15100000
