20
Properties=species:S:1:pos:R:3 gdb_106789=T pbc="F F F"
C        0.28750000       1.54230000       0.19570000
C       -0.16660000       0.10680000      -0.09290000
C        0.53540000      -0.49100000      -1.28770000
C        1.93120000      -1.08990000      -1.18540000
C        0.77550000      -1.97060000      -1.57720000
C        0.32800000      -3.18270000      -0.81710000
O        0.58420000      -2.09390000      -2.99180000
C        0.30760000      -0.83920000      -3.42600000
N        0.23950000       0.10660000      -2.57970000
H        1.35870000       1.57760000       0.42030000
H        0.10600000       2.18110000      -0.67260000
H       -0.25200000       1.96010000       1.05100000
H        0.01670000      -0.52740000       0.78300000
H       -1.24840000       0.09000000      -0.27260000
H        2.67120000      -0.82050000      -1.93190000
H        2.31920000      -1.24120000      -0.18300000
H        0.42410000      -3.01040000       0.25810000
H       -0.71730000      -3.42000000      -1.03740000
H        0.93970000      -4.05390000      -1.07420000
H        0.15700000      -0.75090000      -4.49520000
