17
Properties=species:S:1:pos:R:3 gdb_46415=T pbc="F F F"
O       -0.04890000      -0.02480000      -0.24650000
C       -0.07860000       1.16490000      -0.08210000
C       -1.15460000       2.26880000       0.03160000
C        0.03820000       3.25670000       0.17880000
N        0.93020000       2.09410000       0.07340000
C        2.35900000       1.95670000       0.01130000
C        3.02220000       2.07680000       1.40610000
C        4.47720000       1.98850000       1.32770000
N        5.62710000       1.92100000       1.23600000
H       -1.76070000       2.39530000      -0.86670000
H       -1.80440000       2.17770000       0.90330000
H        0.15350000       3.97570000      -0.63950000
H        0.09490000       3.78450000       1.13660000
H        2.56980000       0.97050000      -0.41150000
H        2.78390000       2.70990000      -0.66230000
H        2.75340000       3.03270000       1.86920000
H        2.64610000       1.28300000       2.05960000
