19
Properties=species:S:1:pos:R:3 gdb_82317=T pbc="F F F"
C       -0.71710000       1.21800000      -0.03610000
C        0.06370000      -0.09530000      -0.06510000
C        1.14940000      -0.15740000      -1.12400000
O        2.32950000       0.58450000      -0.77810000
C        2.33540000      -0.83990000      -0.59240000
C        2.07530000      -1.26080000       0.83720000
C        0.83010000      -0.45420000       1.22290000
C        0.77650000       0.33830000       2.45630000
O        0.07060000      -0.90440000       2.34170000
H       -0.04190000       2.06790000       0.09940000
H       -1.26230000       1.36370000      -0.97420000
H       -1.45130000       1.21970000       0.77520000
H       -0.63520000      -0.92180000      -0.26160000
H        0.89050000      -0.15630000      -2.18020000
H        3.03120000      -1.38950000      -1.22060000
H        1.85080000      -2.33410000       0.87420000
H        2.92190000      -1.07310000       1.50350000
H        1.63200000       0.32830000       3.13100000
H        0.15070000       1.22550000       2.51950000
