17
Properties=species:S:1:pos:R:3 gdb_97314=T pbc="F F F"
C       -0.14140000       1.65790000      -0.83960000
N       -0.32790000       0.23890000      -1.06330000
C        0.15960000      -0.55390000      -0.20600000
N        0.01950000      -1.92620000      -0.35480000
C        0.52560000      -2.85030000       0.54160000
O        1.14020000      -2.53740000       1.54250000
C        0.24890000      -4.22170000       0.16580000
C        0.03930000      -5.37600000      -0.11170000
C       -0.20600000      -6.77140000      -0.43230000
H        0.42000000       1.89450000       0.07780000
H        0.38780000       2.09710000      -1.69330000
H       -1.11840000       2.15200000      -0.78580000
H        0.71280000      -0.27570000       0.69560000
H       -0.48310000      -2.24870000      -1.16930000
H       -0.85950000      -7.23140000       0.31680000
H       -0.68440000      -6.87930000      -1.41110000
H        0.73170000      -7.33700000      -0.44760000
