15
Properties=species:S:1:pos:R:3 gdb_131729=T pbc="F F F"
O        0.59410000       0.50740000      -0.62420000
C       -0.21480000       0.38660000       0.52810000
C       -1.54910000      -0.23410000       0.20160000
N       -2.64000000       0.28910000       0.66560000
N       -3.78640000      -0.33120000       0.34690000
C       -3.91870000      -1.47020000      -0.43720000
N       -5.07920000      -1.96050000      -0.66450000
C       -2.60700000      -1.93800000      -0.89980000
N       -1.49330000      -1.36490000      -0.60380000
H        0.58560000      -0.35730000      -1.05310000
H        0.28320000      -0.22090000       1.30290000
H       -0.37130000       1.38670000       0.93740000
H       -4.62820000       0.09240000       0.71190000
H       -5.00900000      -2.78740000      -1.25480000
H       -2.58800000      -2.82590000      -1.53250000
