14
Properties=species:S:1:pos:R:3 gdb_20962=T pbc="F F F"
C        0.02410000       1.50600000      -0.06590000
C        0.00320000      -0.00750000       0.00200000
O        0.67150000      -0.50390000      -1.17660000
C        0.74970000      -1.81800000      -1.28980000
N        0.26830000      -2.67480000      -0.41670000
O        0.60660000      -3.91550000      -0.99370000
C        1.24170000      -3.63470000      -2.12950000
N        1.37160000      -2.37360000      -2.38500000
H        1.05120000       1.87970000      -0.09050000
H       -0.49560000       1.86220000      -0.95940000
H       -0.47510000       1.92080000       0.81450000
H        0.52400000      -0.38720000       0.88800000
H       -1.01770000      -0.40480000       0.02130000
H        1.58410000      -4.47100000      -2.72190000
