17
Properties=species:S:1:pos:R:3 gdb_1756=T pbc="F F F"
C       -0.08210000       1.33320000       0.02080000
O       -0.18110000      -0.05890000      -0.16650000
C        0.76190000      -0.56900000      -1.09450000
C        0.66090000      -2.07060000      -1.04340000
O        0.90380000      -2.58760000       0.23500000
C       -0.33130000      -2.79090000      -1.92460000
C        1.16150000      -2.90220000      -2.17880000
H        0.91300000       1.62540000       0.39090000
H       -0.27630000       1.88400000      -0.91260000
H       -0.83370000       1.61910000       0.76070000
H        0.55830000      -0.19180000      -2.10950000
H        1.77870000      -0.25120000      -0.80990000
H        0.32220000      -2.09500000       0.82770000
H       -0.82410000      -3.65280000      -1.49060000
H       -0.93510000      -2.21450000      -2.61730000
H        1.58240000      -2.40540000      -3.04660000
H        1.64580000      -3.83310000      -1.90800000
