22
Properties=species:S:1:pos:R:3 gdb_56903=T pbc="F F F"
C        2.42510000       0.81750000       0.78090000
C        1.39240000      -0.30910000       0.61290000
C        0.05180000       0.14000000       0.99770000
C       -1.04040000       0.51750000       1.32740000
N        1.39090000      -0.73750000      -0.79090000
C        2.33840000      -1.78370000      -1.17560000
C        0.86810000      -2.05390000      -1.18360000
C        0.29020000      -3.01330000      -0.15790000
C        0.11600000      -2.03330000      -2.50020000
H        3.42060000       0.45010000       0.51460000
H        2.17450000       1.65450000       0.12540000
H        2.44540000       1.16830000       1.81590000
H        1.67920000      -1.12940000       1.29350000
H       -2.00720000       0.84830000       1.61650000
H        2.88530000      -1.61430000      -2.10020000
H        2.92490000      -2.25440000      -0.38590000
H        0.89350000      -3.07890000       0.75030000
H       -0.72320000      -2.71230000       0.12770000
H        0.23240000      -4.01990000      -0.58540000
H        0.13930000      -3.01870000      -2.97950000
H       -0.93320000      -1.76110000      -2.33980000
H        0.55390000      -1.30040000      -3.18170000
