19
Properties=species:S:1:pos:R:3 gdb_107313=T pbc="F F F"
C        0.06450000       1.48430000       0.37230000
C       -0.00190000       0.05170000      -0.17290000
C       -1.40020000      -0.53040000      -0.14870000
C       -1.99100000      -1.03790000       1.16020000
C       -1.71820000      -1.99630000       0.01520000
C       -2.90540000      -2.26280000      -0.84900000
C       -3.33470000      -1.15250000      -1.46620000
C       -2.43530000      -0.01150000      -1.13880000
O       -2.48540000       1.10930000      -1.59580000
H        1.08770000       1.87000000       0.32630000
H       -0.58370000       2.14210000      -0.21020000
H       -0.26270000       1.52110000       1.41700000
H        0.37100000       0.03440000      -1.20420000
H        0.66280000      -0.60090000       0.40720000
H       -1.31420000      -1.05840000       2.00960000
H       -3.02530000      -0.81990000       1.40380000
H       -0.94120000      -2.74370000       0.12780000
H       -3.37330000      -3.23950000      -0.90730000
H       -4.20050000      -1.04640000      -2.10620000
