17
Properties=species:S:1:pos:R:3 gdb_36075=T pbc="F F F"
C       -0.16510000      -1.21540000      -0.26670000
C       -0.10930000      -0.02880000      -0.08740000
C       -0.01900000       1.41230000       0.13990000
C        1.38930000       1.93330000       0.09750000
C        1.97930000       3.33930000      -0.01440000
C        2.85780000       3.12440000       1.21760000
C        2.72700000       1.61570000       0.88410000
O        3.45440000       1.47570000      -0.36830000
C        2.38710000       2.19930000      -0.97400000
H       -0.21760000      -2.26310000      -0.43090000
H       -0.61220000       1.94350000      -0.61660000
H       -0.48120000       1.65880000       1.10590000
H        1.49170000       4.24290000      -0.35870000
H        3.87400000       3.52990000       1.22780000
H        2.32840000       3.38490000       2.13770000
H        2.92630000       0.81770000       1.59580000
H        2.31400000       2.23620000      -2.05300000
