14
Properties=species:S:1:pos:R:3 gdb_98950=T pbc="F F F"
O        0.48220000       0.67550000      -0.63320000
C       -0.12770000      -0.02270000       0.41290000
C       -1.43650000      -0.63610000      -0.03760000
O       -1.87170000      -0.53360000      -1.15350000
O       -2.05150000      -1.29330000       0.97720000
C       -3.22150000      -2.00170000       0.70770000
N       -4.23670000      -1.69860000       1.39200000
C       -3.09530000      -3.05830000      -0.24660000
C       -3.02230000      -3.97770000      -1.01780000
H       -0.10140000       0.57810000      -1.39930000
H        0.51570000      -0.83360000       0.78730000
H       -0.33570000       0.63440000       1.27030000
H       -5.01270000      -2.32250000       1.17180000
H       -2.95610000      -4.78180000      -1.71000000
