14
Properties=species:S:1:pos:R:3 gdb_225=T pbc="F F F"
C       -0.20830000       1.56200000       0.01640000
C       -0.04980000       0.03140000       0.01540000
C        0.86970000      -0.44320000       1.14590000
O       -1.32040000      -0.61330000       0.06050000
C        0.53200000      -0.37890000      -1.33930000
O        1.68000000      -0.21060000      -1.65610000
H        0.76080000       2.04990000      -0.11740000
H       -0.87850000       1.88080000      -0.78720000
H       -0.63390000       1.89380000       0.97050000
H        0.51230000      -0.07210000       2.11280000
H        0.89340000      -1.53570000       1.18070000
H        1.88610000      -0.07640000       0.98410000
H       -1.75760000      -0.35560000       0.87820000
H       -0.21690000      -0.83530000      -2.02300000
