18
Properties=species:S:1:pos:R:3 gdb_82286=T pbc="F F F"
C       -0.07800000       1.40920000       0.01210000
N        0.01540000      -0.04010000       0.04480000
C       -1.21910000      -0.76280000      -0.03400000
C       -1.61910000      -1.50040000      -1.28470000
C       -1.17270000      -2.27220000      -0.04400000
C        0.17170000      -2.87470000       0.00310000
C        1.27470000      -2.12100000      -0.00470000
C        1.25820000      -0.63810000       0.00200000
O        2.29720000       0.00750000      -0.00730000
H        0.92910000       1.81230000       0.10590000
H       -0.52250000       1.75590000      -0.92970000
H       -0.70010000       1.77110000       0.83980000
H       -2.01150000      -0.28860000       0.53860000
H       -2.67050000      -1.54020000      -1.54630000
H       -0.92880000      -1.47790000      -2.12040000
H       -1.95230000      -2.80170000       0.49390000
H        0.24310000      -3.95820000       0.05350000
H        2.27080000      -2.54680000       0.01040000
