15
Properties=species:S:1:pos:R:3 gdb_4854=T pbc="F F F"
C       -0.20340000       1.43070000      -0.05610000
O       -0.05590000       0.01470000      -0.01390000
C       -1.17680000      -0.71720000       0.01750000
C       -1.33310000      -2.06760000       0.06160000
C       -2.75360000      -2.27960000       0.07800000
C       -3.35670000      -1.06680000       0.04280000
N       -4.69300000      -0.67790000       0.03930000
O       -2.36590000      -0.07530000       0.00500000
H        0.81010000       1.83270000      -0.07610000
H       -0.74590000       1.74810000      -0.95290000
H       -0.73230000       1.80250000       0.82790000
H       -0.54530000      -2.80130000       0.07960000
H       -3.27190000      -3.22490000       0.11160000
H       -4.95170000      -0.16160000      -0.79580000
H       -4.94230000      -0.11420000       0.84620000
