18
Properties=species:S:1:pos:R:3 gdb_56048=T pbc="F F F"
C       -0.00560000       1.38090000      -0.08620000
C       -0.06810000      -0.11330000       0.17730000
O        0.89450000      -0.75270000       0.52190000
C       -1.45180000      -0.75300000      -0.01380000
N       -1.39780000      -2.19320000      -0.12790000
C       -1.28120000      -2.85880000       0.92550000
C       -1.13910000      -4.32680000       1.25990000
C       -1.12410000      -3.81770000       2.71630000
O       -1.26970000      -2.44310000       2.24470000
H        0.93380000       1.78570000       0.29200000
H       -0.06490000       1.56280000      -1.16600000
H       -0.85290000       1.90110000       0.37270000
H       -2.06190000      -0.40830000       0.83800000
H       -1.91010000      -0.33210000      -0.91630000
H       -1.98890000      -4.94920000       0.97520000
H       -0.21450000      -4.78360000       0.90420000
H       -1.97140000      -4.10800000       3.34230000
H       -0.18650000      -3.94220000       3.26230000
