15
Properties=species:S:1:pos:R:3 gdb_7340=T pbc="F F F"
N       -0.02120000       1.29480000       0.00830000
C        0.06840000      -0.05300000       0.00030000
O        1.09410000      -0.70550000      -0.01320000
C       -1.32530000      -0.72880000       0.01020000
O       -2.32910000      -0.04920000       0.02310000
C       -1.32030000      -2.23230000       0.00260000
C       -2.71610000      -2.83550000       0.01280000
O       -2.55940000      -4.24520000       0.00430000
H        0.81340000       1.85570000       0.00350000
H       -0.93410000       1.72020000       0.01980000
H       -0.75030000      -2.57410000      -0.87030000
H       -0.73390000      -2.58280000       0.86100000
H       -3.26170000      -2.49060000       0.90350000
H       -3.27850000      -2.48180000      -0.86380000
H       -3.43450000      -4.64350000       0.01040000
