18
Properties=species:S:1:pos:R:3 gdb_12736=T pbc="F F F"
C       -0.58680000       1.37660000      -0.00550000
C        0.04380000      -0.00760000      -0.03230000
C        1.34090000      -0.24290000      -0.87840000
C        2.03920000      -0.85510000       0.35640000
O        2.79660000       0.12710000       1.09700000
C        1.69390000       0.41060000       1.98340000
C        0.76540000      -0.55940000       1.22480000
O       -0.01420000      -1.45460000       1.95070000
H        0.14980000       2.15440000       0.22240000
H       -1.02540000       1.61940000      -0.97920000
H       -1.38490000       1.43450000       0.74260000
H       -0.71330000      -0.75030000      -0.30240000
H        1.20820000      -0.92610000      -1.72060000
H        1.84080000       0.66380000      -1.22750000
H        2.55770000      -1.81310000       0.26780000
H        1.90770000       0.08230000       3.01290000
H        1.42780000       1.47410000       2.00600000
H        0.50010000      -1.77990000       2.69800000
