21
Properties=species:S:1:pos:R:3 gdb_109168=T pbc="F F F"
C        0.18370000       1.36770000       0.21850000
C       -0.05210000      -0.13520000      -0.01450000
C       -1.50430000      -0.50570000      -0.08800000
C       -2.18040000      -0.96160000      -1.14390000
C       -3.63800000      -1.22020000      -0.85790000
C       -3.74510000      -1.08120000       0.67370000
O       -3.82570000      -2.38830000       1.22820000
C       -2.41310000      -0.38410000       1.12180000
O       -1.87140000      -0.96100000       2.30580000
H        1.25450000       1.58970000       0.25610000
H       -0.25920000       1.96390000      -0.58570000
H       -0.25640000       1.69690000       1.16480000
H        0.45040000      -0.44890000      -0.93630000
H        0.41540000      -0.69100000       0.80840000
H       -1.74880000      -1.11690000      -2.12800000
H       -4.28320000      -0.49390000      -1.36900000
H       -3.97240000      -2.21510000      -1.17160000
H       -4.62220000      -0.49290000       0.97320000
H       -3.81270000      -2.27780000       2.18630000
H       -2.59400000       0.66490000       1.38520000
H       -1.69600000      -1.88550000       2.08920000
