18
Properties=species:S:1:pos:R:3 gdb_6569=T pbc="F F F"
C       -0.13660000       1.56850000      -0.00340000
C        0.04060000       0.05900000       0.02070000
C        1.20010000      -0.65220000      -0.73430000
O        1.34220000      -0.59100000      -2.10600000
C        2.19500000      -0.15790000       0.36500000
C        0.90710000      -0.65720000       1.09620000
O        0.61390000      -0.60340000       2.44390000
C        0.92880000      -1.90550000       0.15760000
H        0.79400000       2.12110000       0.14530000
H       -0.55760000       1.88200000      -0.96430000
H       -0.83420000       1.87750000       0.78190000
H       -0.92650000      -0.43320000      -0.13540000
H        2.12780000      -1.08880000      -2.35610000
H        3.09530000      -0.76490000       0.50740000
H        2.42560000       0.90660000       0.40480000
H        1.28290000      -1.10260000       2.92430000
H       -0.02250000      -2.42080000       0.00390000
H        1.76210000      -2.60320000       0.28900000
