20
Properties=species:S:1:pos:R:3 gdb_64586=T pbc="F F F"
C       -0.02480000       1.63720000      -0.09990000
C        0.00920000       0.12230000      -0.07130000
C       -1.14580000      -0.52110000       0.64060000
O       -2.14400000       0.05110000       0.99980000
C        0.59390000      -0.72810000      -1.17370000
C        1.47720000      -0.06000000      -2.21740000
C        2.58510000       0.65220000      -1.40220000
C        2.52010000      -0.00780000      -0.00040000
N        1.23290000      -0.71270000       0.13710000
H        0.17460000       2.05260000      -1.08970000
H       -1.02550000       1.95000000       0.20760000
H        0.68960000       2.07370000       0.60540000
H       -0.99860000      -1.60950000       0.80990000
H        0.08390000      -1.64640000      -1.45750000
H        1.89740000      -0.83610000      -2.86510000
H        0.92340000       0.62810000      -2.86370000
H        3.56950000       0.52910000      -1.86010000
H        2.39580000       1.72510000      -1.33800000
H        3.29830000      -0.76970000       0.11110000
H        2.65190000       0.70900000       0.81570000
