21
Properties=species:S:1:pos:R:3 gdb_105195=T pbc="F F F"
C       -0.66300000       1.38120000       0.42920000
C        0.14610000       0.15730000      -0.02020000
C        0.95860000      -0.48730000       1.09200000
C        0.21000000      -1.24860000       2.18510000
C        0.99250000      -2.02150000       1.18100000
O        0.34840000      -2.73180000       0.16850000
C        2.26110000       0.12280000       1.53570000
C        2.92090000       1.15810000       0.64220000
O        2.80190000      -0.24550000       2.56010000
H       -0.02250000       2.17880000       0.82050000
H       -1.23550000       1.79630000      -0.40610000
H       -1.37040000       1.11570000       1.22150000
H       -0.52900000      -0.60030000      -0.42710000
H        0.80910000       0.43560000      -0.84720000
H        0.60720000      -1.17100000       3.19030000
H       -0.87090000      -1.26670000       2.09060000
H        1.94300000      -2.44030000       1.50630000
H       -0.19590000      -3.41030000       0.58090000
H        3.12340000       0.73440000      -0.34800000
H        2.27420000       2.02770000       0.48990000
H        3.85820000       1.47370000       1.10120000
