21
Properties=species:S:1:pos:R:3 gdb_36413=T pbc="F F F"
C       -0.30520000      -0.94120000      -0.53320000
C       -0.12870000       0.24060000      -0.39840000
C        0.11200000       1.66840000      -0.22410000
C        1.56120000       1.99420000       0.21820000
C        2.64700000       1.58250000      -0.82050000
C        3.14030000       2.86580000      -1.47310000
C        2.12350000       3.79480000      -2.08900000
C        2.61400000       4.04350000      -0.68370000
C        1.78080000       3.51550000       0.47560000
H       -0.47290000      -1.98240000      -0.65600000
H       -0.13400000       2.19060000      -1.15630000
H       -0.58210000       2.06040000       0.53060000
H        1.72140000       1.43980000       1.14710000
H        3.48580000       1.09830000      -0.30850000
H        2.25760000       0.85280000      -1.53840000
H        4.14440000       2.87270000      -1.88340000
H        2.47680000       4.47080000      -2.86060000
H        1.10820000       3.44830000      -2.25000000
H        3.22770000       4.92070000      -0.50890000
H        0.82950000       4.04840000       0.59460000
H        2.33680000       3.65830000       1.40890000
