22
Properties=species:S:1:pos:R:3 gdb_112431=T pbc="F F F"
C        0.09600000       1.56210000      -0.14800000
C        0.11370000       0.03520000      -0.03140000
C       -1.29080000      -0.57170000      -0.02610000
O       -1.99490000      -0.18790000      -1.23210000
C       -2.03190000      -1.21910000      -2.13090000
N       -2.55560000      -1.15080000      -3.27770000
C       -1.36490000      -2.43260000      -1.52590000
C       -1.37260000      -2.11930000      -0.02230000
C       -0.32350000      -2.85410000       0.80810000
H        1.11250000       1.96580000      -0.16090000
H       -0.40980000       1.87510000      -1.06470000
H       -0.43330000       2.01580000       0.69740000
H        0.69530000      -0.39440000      -0.85680000
H        0.61920000      -0.26030000       0.89540000
H       -1.86100000      -0.14240000       0.80550000
H       -2.92900000      -0.21390000      -3.44200000
H       -1.89030000      -3.34790000      -1.80070000
H       -0.34040000      -2.51440000      -1.90940000
H       -2.36560000      -2.37730000       0.36630000
H        0.68960000      -2.66850000       0.43810000
H       -0.35980000      -2.55210000       1.86030000
H       -0.49640000      -3.93420000       0.77010000
