16
Properties=species:S:1:pos:R:3 gdb_42691=T pbc="F F F"
O       -0.02590000      -0.00880000       0.02770000
C       -0.05470000       1.18980000      -0.00900000
C       -1.26320000       2.07330000      -0.01810000
C       -1.21730000       3.12060000       1.09670000
C        0.00250000       3.08130000       2.00630000
C        1.18060000       3.03510000       1.04670000
C        0.72290000       3.40330000      -0.31750000
C       -0.79890000       3.48500000      -0.30190000
N        1.13650000       2.01000000      -0.04710000
H       -2.21770000       1.67060000      -0.33000000
H       -2.17230000       3.44040000       1.49570000
H        0.06360000       3.99890000       2.60280000
H       -0.01050000       2.23440000       2.70110000
H        2.18060000       3.23810000       1.41620000
H        1.31290000       3.95650000      -1.03830000
H       -1.34200000       4.16550000      -0.94260000
