20
Properties=species:S:1:pos:R:3 gdb_56249=T pbc="F F F"
C       -0.01530000       1.39510000      -0.14920000
C        0.07800000      -0.08830000       0.06860000
N        0.28550000      -0.58710000       1.21580000
O       -0.09210000      -0.74060000      -1.11720000
C       -0.04050000      -2.16320000      -1.11530000
C       -0.23920000      -2.63300000      -2.55210000
C       -0.24080000      -4.13860000      -2.64820000
C        0.37670000      -4.85250000      -3.77140000
O        1.02790000      -4.78620000      -2.50190000
H        0.75010000       1.72140000      -0.86020000
H       -0.98780000       1.65400000      -0.57920000
H        0.11840000       1.91270000       0.79950000
H        0.32680000      -1.60510000       1.20500000
H        0.92890000      -2.50980000      -0.73460000
H       -0.82690000      -2.56540000      -0.46050000
H       -1.18980000      -2.23910000      -2.93110000
H        0.56050000      -2.22400000      -3.17750000
H       -1.05090000      -4.64260000      -2.11660000
H        0.00740000      -5.83610000      -4.05790000
H        0.85100000      -4.28370000      -4.57020000
