17
Properties=species:S:1:pos:R:3 gdb_66766=T pbc="F F F"
O       -0.05860000       1.39200000       0.02030000
C       -0.01070000       0.01640000       0.00440000
C       -1.28280000      -0.88840000       0.10650000
C       -0.38110000      -1.88500000       0.78480000
C       -0.51210000      -1.87200000      -0.73300000
C        0.54510000      -0.82030000      -1.20850000
C        1.96270000      -1.15940000      -0.85030000
C        2.07830000      -1.17080000       0.48830000
C        0.74350000      -0.83990000       1.08980000
H        0.84560000       1.72190000      -0.05430000
H       -2.33480000      -0.66690000       0.19920000
H       -0.64910000      -2.74630000       1.38170000
H       -0.87970000      -2.72350000      -1.28970000
H        0.33890000      -0.41590000      -2.20020000
H        2.73770000      -1.41660000      -1.56290000
H        2.96350000      -1.43900000       1.05320000
H        0.71090000      -0.45260000       2.10890000
