16
Properties=species:S:1:pos:R:3 gdb_52039=T pbc="F F F"
O       -0.14890000      -0.03310000      -0.26590000
C       -0.00610000       1.14610000      -0.08110000
C        1.32630000       1.86710000      -0.11520000
C        1.36290000       2.92250000      -1.23750000
N        2.58330000       3.73010000      -1.22450000
C        3.70110000       3.25130000      -1.92810000
O        4.78090000       3.76540000      -1.98360000
C        2.58110000       4.92940000      -0.49520000
O        3.50540000       5.67570000      -0.34530000
H       -0.88150000       1.80590000       0.12480000
H        1.46770000       2.37450000       0.84860000
H        2.12600000       1.13260000      -0.24190000
H        1.28050000       2.43410000      -2.21260000
H        0.50500000       3.59670000      -1.15150000
H        3.44870000       2.30760000      -2.45270000
H        1.57600000       5.11400000      -0.06330000
