23
Properties=species:S:1:pos:R:3 gdb_41609=T pbc="F F F"
C       -0.11430000       1.42770000      -0.15420000
C        1.43770000       1.52410000       0.01940000
C        1.50740000      -0.00470000       0.11900000
C       -0.01660000      -0.09830000      -0.03990000
C        0.90590000      -0.67650000      -1.08550000
C        0.98450000      -0.16530000      -2.53740000
C        1.22290000      -1.42710000      -3.39680000
C        0.59410000      -2.56360000      -2.57490000
C        1.00300000      -2.21020000      -1.13630000
H       -0.65050000       1.88330000       0.68110000
H       -0.53520000       1.81960000      -1.08610000
H        2.00420000       1.98820000      -0.79450000
H        1.71290000       2.01950000       0.95330000
H        2.15770000      -0.55450000       0.79170000
H       -0.72050000      -0.73010000       0.49150000
H        0.03960000       0.31090000      -2.82360000
H        1.77060000       0.58160000      -2.68350000
H        0.80780000      -1.33780000      -4.40480000
H        2.29900000      -1.60940000      -3.50560000
H       -0.49840000      -2.53530000      -2.67170000
H        0.92640000      -3.55870000      -2.88460000
H        2.03950000      -2.52920000      -0.96260000
H        0.38670000      -2.69930000      -0.37580000
