18
Properties=species:S:1:pos:R:3 gdb_67023=T pbc="F F F"
C       -0.13310000       1.50460000      -0.00460000
C        0.08840000       0.02750000       0.04300000
C        0.89890000      -0.83740000      -0.84360000
C        1.75150000      -1.72250000      -0.01640000
C        1.30100000      -1.72890000       1.24580000
C        0.03010000      -0.92280000       1.30430000
O       -0.42820000      -0.46640000       2.54000000
C       -1.02250000      -1.70030000       0.45630000
N       -0.64500000      -0.97490000      -0.78730000
H        0.72760000       2.04870000       0.40060000
H       -0.29160000       1.82920000      -1.03730000
H       -1.01500000       1.78300000       0.58190000
H        1.20490000      -0.50720000      -1.82910000
H        2.56310000      -2.31630000      -0.41740000
H        1.63480000      -2.36100000       2.06060000
H        0.31730000      -0.08690000       3.01760000
H       -0.95900000      -2.79260000       0.42760000
H       -2.03220000      -1.37970000       0.72450000
