23
Properties=species:S:1:pos:R:3 gdb_104114=T pbc="F F F"
C        0.12710000       1.57460000      -0.06600000
C       -0.00740000       0.04780000      -0.04030000
C       -1.44430000      -0.50180000       0.04500000
C       -2.28200000      -0.05500000      -1.16800000
C       -1.42580000      -2.05930000       0.12420000
C       -2.74780000      -2.46370000       0.79240000
C       -3.14170000      -1.25680000       1.65330000
O       -4.06100000      -1.21590000       2.42930000
C       -2.16450000      -0.11560000       1.35710000
H        1.18200000       1.86560000      -0.07220000
H       -0.33680000       2.01280000      -0.95460000
H       -0.33580000       2.03480000       0.81340000
H        0.47250000      -0.37140000      -0.93530000
H        0.55790000      -0.34330000       0.81610000
H       -1.80290000      -0.35860000      -2.10520000
H       -3.28450000      -0.49570000      -1.15050000
H       -2.41040000       1.03110000      -1.19130000
H       -1.28410000      -2.51360000      -0.86080000
H       -0.58240000      -2.37740000       0.74840000
H       -3.55050000      -2.63130000       0.06460000
H       -2.69160000      -3.36750000       1.40480000
H       -1.45210000      -0.08190000       2.19400000
H       -2.68330000       0.84580000       1.34030000
