20
Properties=species:S:1:pos:R:3 gdb_73164=T pbc="F F F"
C       -0.30410000       1.37520000      -0.13870000
C        0.02150000      -0.09010000       0.03760000
C       -1.15700000      -1.04570000       0.40530000
C       -0.41590000      -1.47260000       1.70830000
C        0.83500000      -0.69280000       1.24800000
C        1.73980000      -1.46180000       0.24640000
C        1.06500000      -0.71150000      -0.95200000
C        0.57300000      -1.49960000      -2.06900000
N        0.15860000      -2.14170000      -2.93780000
H        0.60340000       1.98550000      -0.21080000
H       -0.89140000       1.53810000      -1.05060000
H       -0.89360000       1.74990000       0.70520000
H       -2.10500000      -0.52780000       0.56780000
H       -1.33200000      -1.84610000      -0.31780000
H       -0.87050000      -1.04540000       2.60580000
H       -0.28150000      -2.54560000       1.87170000
H        1.35380000      -0.06800000       1.97670000
H        2.81040000      -1.26940000       0.33060000
H        1.58210000      -2.54280000       0.23880000
H        1.72560000       0.06920000      -1.34110000
