19
Properties=species:S:1:pos:R:3 gdb_97363=T pbc="F F F"
C       -0.67210000       1.43280000      -0.74870000
C        0.18820000       0.41380000       0.00590000
C        0.77300000       1.05800000       1.28520000
N        2.06590000       0.51330000       1.71990000
H        2.68610000       1.19120000       2.16170000
C        2.38840000      -0.76890000       1.62570000
N        3.58960000      -1.10530000       2.09840000
C       -0.63620000      -0.86560000       0.29170000
O       -1.80330000      -0.94320000      -0.01310000
O        0.01070000      -1.86530000       0.87380000
H       -0.06690000       2.28770000      -1.06820000
H       -1.12710000       0.97200000      -1.62640000
H       -1.48990000       1.79720000      -0.12030000
H        1.03840000       0.12020000      -0.62290000
H        0.93890000       2.12180000       1.08880000
H        0.04520000       0.99720000       2.10500000
H        0.97620000      -1.60410000       1.08930000
H        4.24910000      -0.45450000       2.51770000
H        3.88650000      -2.06360000       2.04800000
