18
Properties=species:S:1:pos:R:3 gdb_23455=T pbc="F F F"
O       -0.11270000       1.32330000      -0.06180000
N       -0.01770000      -0.08220000      -0.13090000
C       -1.15550000      -0.62690000       0.05680000
C       -2.48190000       0.04340000       0.34370000
C       -3.38990000      -1.07620000       0.91070000
C       -2.70430000      -2.40370000       0.58850000
C       -2.37470000      -2.68480000      -0.83860000
O       -2.99610000      -1.91970000      -1.82790000
C       -1.29600000      -2.10300000       0.06860000
H        0.80650000       1.59070000      -0.16410000
H       -2.34580000       0.87960000       1.03420000
H       -2.88570000       0.45730000      -0.58460000
H       -3.47670000      -0.98150000       1.99760000
H       -4.40150000      -1.02930000       0.49820000
H       -2.88660000      -3.24680000       1.24530000
H       -2.22850000      -3.73250000      -1.10240000
H       -2.35110000      -1.74680000      -2.52230000
H       -0.42580000      -2.70670000       0.29390000
