16
Properties=species:S:1:pos:R:3 gdb_46595=T pbc="F F F"
O       -0.08320000      -0.07280000      -0.07960000
C       -0.01330000       1.13050000       0.01950000
N       -1.09440000       1.98240000       0.19980000
C       -0.84590000       3.41270000      -0.00030000
C        0.67030000       3.44400000      -0.02230000
C        1.49210000       2.96830000       1.11910000
C        1.19500000       2.02760000      -0.04140000
C        1.95420000       2.48520000      -1.29230000
O        1.44370000       3.85090000      -1.15520000
H       -2.02270000       1.59600000       0.27980000
H       -1.23660000       3.77340000      -0.96000000
H       -1.29090000       4.01120000       0.80230000
H        2.50440000       3.34310000       1.22780000
H        0.97250000       2.75120000       2.04570000
H        3.04780000       2.45210000      -1.25580000
H        1.59590000       2.02470000      -2.21800000
