18
Properties=species:S:1:pos:R:3 gdb_72757=T pbc="F F F"
C       -0.17150000       1.58740000      -0.20300000
C       -0.06040000       0.07540000      -0.01090000
C        0.85910000      -0.60500000      -1.11490000
C        2.06340000      -0.54830000      -0.10180000
C        0.97830000      -0.45370000       0.94210000
C        0.42140000      -1.17460000       1.91820000
C       -1.06660000      -1.11320000       1.74530000
O       -1.93910000      -1.53760000       2.46880000
N       -1.27360000      -0.52040000       0.48740000
H        0.79030000       2.02400000      -0.48660000
H       -0.88520000       1.81560000      -1.00270000
H       -0.51450000       2.07120000       0.71620000
H        0.54860000      -1.63190000      -1.30850000
H        0.97340000      -0.05410000      -2.05150000
H        2.73000000      -1.40960000      -0.04860000
H        2.65680000       0.36210000      -0.22330000
H        0.88610000      -1.83420000       2.63750000
H       -2.18460000      -0.12870000       0.29850000
