19
Properties=species:S:1:pos:R:3 gdb_92460=T pbc="F F F"
O       -0.01530000       1.42600000      -0.05290000
C        0.03230000       0.01010000       0.02910000
C        0.65020000      -0.55180000       1.35490000
C       -0.51300000      -1.37870000       1.93120000
O       -1.52150000      -0.49500000       2.42250000
C       -2.13890000       0.10000000       1.25420000
C       -1.40780000      -0.55070000       0.07170000
C       -1.17650000      -1.95360000       0.65730000
O       -0.34570000      -2.73070000      -0.18110000
H        0.88870000       1.75300000      -0.07550000
H        0.55850000      -0.40100000      -0.83940000
H        1.53290000      -1.16690000       1.16230000
H        0.91750000       0.25860000       2.03790000
H       -0.25540000      -2.08080000       2.72720000
H       -3.21110000      -0.13240000       1.25720000
H       -2.00670000       1.18420000       1.27610000
H       -1.94260000      -0.49640000      -0.87640000
H       -2.11670000      -2.47010000       0.89080000
H       -0.17580000      -3.56980000       0.25800000
