19
Properties=species:S:1:pos:R:3 gdb_103113=T pbc="F F F"
C       -0.34260000       1.23460000       0.09650000
O        0.30740000      -0.02280000      -0.04810000
C        0.81990000      -0.54420000       1.13670000
C        2.07230000       0.11600000       1.66770000
C       -0.17470000      -1.17520000       2.08200000
O       -1.53630000      -1.12210000       1.82170000
C        0.72730000      -2.07490000       1.22340000
C        0.09390000      -2.81480000       0.17780000
C       -0.50750000      -3.43360000      -0.66250000
H        0.36250000       2.03210000       0.36810000
H       -0.77180000       1.47120000      -0.87970000
H       -1.14160000       1.18480000       0.84370000
H        1.89010000       1.16440000       1.92540000
H        2.42500000      -0.38810000       2.57220000
H        2.87030000       0.07880000       0.91920000
H        0.03010000      -1.14380000       3.14860000
H       -1.70350000      -1.61690000       1.00740000
H        1.54810000      -2.57660000       1.72710000
H       -0.99620000      -3.97920000      -1.43130000
