11
Properties=species:S:1:pos:R:3 gdb_4695=T pbc="F F F"
N        0.14660000       1.33050000       0.17230000
C       -0.04890000      -0.01930000       0.05150000
C       -1.14910000      -0.83750000      -0.00280000
N       -0.72370000      -2.14530000      -0.03670000
C        0.57090000      -2.08390000      -0.00540000
O        1.05740000      -0.79440000       0.05060000
C        1.51310000      -3.13500000      -0.02760000
N        2.29320000      -3.99110000      -0.04660000
H        1.03350000       1.66490000      -0.17710000
H       -0.63290000       1.89930000      -0.12190000
H       -2.19250000      -0.57000000      -0.01790000
