20
Properties=species:S:1:pos:R:3 gdb_90324=T pbc="F F F"
C       -1.08670000       0.96110000      -0.01550000
C       -0.29800000      -0.32760000      -0.02040000
O        0.97910000      -0.16620000      -0.79040000
C        1.66480000      -0.36530000       0.37060000
N        2.76460000       0.01620000       0.85640000
C        2.56280000      -0.22660000       2.31720000
C        0.99610000      -0.23420000       2.57980000
C        0.49270000       1.16520000       2.94080000
C        0.53990000      -0.82490000       1.21930000
H       -0.49740000       1.79500000       0.36860000
H       -1.40170000       1.20480000      -1.03440000
H       -1.98380000       0.84940000       0.60200000
H       -0.87210000      -1.13970000      -0.47370000
H        3.02350000      -1.17660000       2.61850000
H        3.05840000       0.56980000       2.88090000
H        0.74640000      -0.91850000       3.39620000
H        0.81520000       1.91080000       2.20770000
H       -0.59850000       1.20090000       3.01160000
H        0.89960000       1.46610000       3.91170000
H        0.46050000      -1.91370000       1.28540000
