19
Properties=species:S:1:pos:R:3 gdb_71487=T pbc="F F F"
C       -0.02150000       1.49620000      -0.03910000
C        0.01250000      -0.00590000      -0.03570000
C        0.56160000      -0.96580000      -1.12500000
C        0.03530000      -1.90580000      -0.01820000
C        0.61800000      -0.95260000       1.08220000
C       -0.35790000      -0.95170000       2.24780000
C       -1.55500000      -0.96010000       1.65940000
C       -1.21990000      -0.96650000       0.17110000
O       -2.23900000      -0.89780000      -0.77760000
H        0.98620000       1.91510000      -0.13240000
H       -0.62020000       1.86770000      -0.87750000
H       -0.46480000       1.87250000       0.88950000
H        0.01960000      -0.97830000      -2.07260000
H        1.64400000      -0.95340000      -1.28370000
H        0.04240000      -2.99920000       0.00860000
H        1.69330000      -0.94070000       1.25820000
H       -0.10470000      -0.93510000       3.29860000
H       -2.54900000      -0.94310000       2.08500000
H       -2.79580000      -1.67780000      -0.68530000
