21
Properties=species:S:1:pos:R:3 gdb_96087=T pbc="F F F"
O       -0.08960000       1.42510000      -0.01490000
C       -0.01500000       0.00140000       0.01970000
C        0.81970000      -0.50330000       1.20490000
C        0.70640000      -2.02570000       1.33570000
C       -0.72980000      -2.45230000       1.68440000
C       -1.79660000      -1.74040000       0.84610000
O       -2.71640000      -2.59170000       0.20570000
C       -2.30360000      -0.38430000       1.27000000
C       -1.43240000      -0.52450000       0.03660000
H        0.80940000       1.76300000      -0.08550000
H        0.46210000      -0.36710000      -0.90480000
H        1.86540000      -0.20520000       1.05810000
H        0.47920000      -0.00910000       2.12360000
H        1.00170000      -2.48700000       0.38420000
H        1.40120000      -2.40120000       2.09430000
H       -0.84540000      -3.52680000       1.51340000
H       -0.91360000      -2.27710000       2.75220000
H       -3.30600000      -2.94510000       0.88110000
H       -3.35300000      -0.17020000       1.10100000
H       -1.88050000       0.07720000       2.15620000
H       -1.96000000      -0.43230000      -0.90690000
