19
Properties=species:S:1:pos:R:3 gdb_94315=T pbc="F F F"
C        0.00820000       1.52050000       0.15410000
C       -0.02350000       0.01310000       0.14180000
O       -1.29070000      -0.55630000      -0.12670000
C        1.19440000      -0.78310000      -0.31300000
C        0.77700000      -0.77060000       1.12970000
O        1.55870000      -0.16990000       2.15320000
C        1.11040000      -1.16680000       3.11260000
C        0.28420000      -1.89990000       2.03380000
O       -1.09150000      -1.94630000       2.30770000
H        0.97070000       1.88100000       0.52500000
H       -0.15210000       1.92970000      -0.85040000
H       -0.77650000       1.90510000       0.81250000
H       -1.45410000      -0.51290000      -1.07540000
H        1.02850000      -1.69680000      -0.87610000
H        2.08620000      -0.22550000      -0.58110000
H        1.95490000      -1.71110000       3.54630000
H        0.48800000      -0.72970000       3.89930000
H        0.67550000      -2.89030000       1.76390000
H       -1.54770000      -1.71540000       1.48770000
