17
Properties=species:S:1:pos:R:3 gdb_49994=T pbc="F F F"
O       -0.04630000       0.01250000      -0.25280000
C        0.05990000       1.14970000       0.13760000
C        1.30650000       1.94490000       0.05780000
C        1.18220000       3.47390000      -0.10170000
C        1.63030000       2.90910000       1.18250000
O        0.81480000       2.99960000       2.36110000
C        1.99140000       3.27310000       3.13880000
C        2.93880000       2.11990000       3.10210000
C        2.91080000       3.10830000       1.94790000
H       -0.79840000       1.68660000       0.59860000
H        2.13790000       1.44460000      -0.42770000
H        1.89980000       3.96510000      -0.74960000
H        0.17450000       3.87680000      -0.13680000
H        1.91710000       4.02860000       3.91070000
H        3.80770000       2.20910000       3.74690000
H        2.55430000       1.11250000       2.97360000
H        3.76470000       3.68510000       1.62110000
