15
Properties=species:S:1:pos:R:3 gdb_50975=T pbc="F F F"
O       -0.65500000       0.78310000       0.38140000
C        0.02790000       1.20550000      -0.51260000
C        1.35940000       1.90720000      -0.29090000
C        1.51830000       3.13910000      -1.20920000
N        0.49110000       4.14670000      -0.98780000
C       -0.51160000       4.34360000      -1.89560000
O       -0.65440000       3.69120000      -2.90590000
C        2.85510000       3.72970000      -1.05780000
N        3.90440000       4.18870000      -0.90730000
H       -0.27020000       1.09420000      -1.57780000
H        1.45170000       2.17680000       0.76430000
H        2.16010000       1.19300000      -0.52630000
H        1.39130000       2.82780000      -2.25270000
H        0.54910000       4.73750000      -0.17280000
H       -1.18620000       5.16560000      -1.59620000
