18
Properties=species:S:1:pos:R:3 gdb_97303=T pbc="F F F"
C       -0.00550000       1.46750000       0.35590000
N        0.06440000       0.03690000       0.14850000
C       -1.03130000      -0.60050000       0.07400000
N       -1.06850000      -1.96010000      -0.11180000
C       -2.17360000      -2.90390000      -0.35330000
C       -1.09370000      -4.01750000      -0.51960000
O       -1.10090000      -4.64080000      -1.77720000
C       -0.05970000      -2.90450000      -0.34290000
N        1.19520000      -2.88960000      -0.45330000
H        0.52360000       1.73450000       1.27820000
H        0.50530000       1.98570000      -0.46400000
H       -1.03520000       1.85520000       0.42270000
H       -2.02710000      -0.14070000       0.15360000
H       -2.86060000      -3.01660000       0.48990000
H       -2.72480000      -2.71510000      -1.27860000
H       -1.09710000      -4.74800000       0.30010000
H       -0.17870000      -4.76790000      -2.03030000
H        1.55300000      -1.94070000      -0.32830000
