19
Properties=species:S:1:pos:R:3 gdb_98073=T pbc="F F F"
C        0.00470000       1.46680000       0.18330000
C       -0.13930000      -0.05200000       0.20020000
C       -1.57710000      -0.51580000       0.21930000
O       -2.53360000       0.22490000       0.21300000
C       -1.80240000      -2.04310000       0.27580000
O       -0.86650000      -2.79400000       0.45230000
C       -3.21870000      -2.57950000       0.13000000
C       -3.75590000      -2.32520000      -1.29140000
O       -3.23880000      -3.95040000       0.43600000
H        1.06000000       1.75060000       0.16130000
H       -0.48780000       1.89860000      -0.69200000
H       -0.45470000       1.91430000       1.06850000
H        0.34420000      -0.51920000      -0.66890000
H        0.36620000      -0.50700000       1.06140000
H       -3.85300000      -2.03030000       0.84070000
H       -4.74160000      -2.78910000      -1.37330000
H       -3.84730000      -1.25610000      -1.49320000
H       -3.10070000      -2.78570000      -2.03740000
H       -2.31260000      -4.22260000       0.51950000
