18
Properties=species:S:1:pos:R:3 gdb_64862=T pbc="F F F"
C       -0.14820000       1.61700000       0.00490000
C        0.02220000       0.10260000       0.02930000
C        1.18990000      -0.42630000      -0.87230000
C        2.10600000      -0.50000000       0.38660000
C        0.82130000      -0.43310000       1.26660000
C        2.97530000      -1.65470000       0.53270000
N        3.64770000      -2.58860000       0.64560000
C       -1.28780000      -0.61750000      -0.19810000
O       -2.35050000      -0.08260000      -0.37670000
H        0.80610000       2.12610000       0.17210000
H       -0.54900000       1.94450000      -0.95820000
H       -0.85020000       1.93840000       0.77900000
H        0.98600000      -1.42220000      -1.27440000
H        1.51410000       0.22800000      -1.68320000
H        2.70400000       0.40860000       0.49250000
H        0.85460000       0.21600000       2.14320000
H        0.49570000      -1.43120000       1.57120000
H       -1.19850000      -1.73020000      -0.18830000
