15
Properties=species:S:1:pos:R:3 gdb_19034=T pbc="F F F"
O       -0.01260000       0.00940000       0.14300000
C       -0.06350000       1.20190000       0.05800000
C       -1.31610000       2.09040000       0.01980000
C       -0.74240000       3.42770000       0.47980000
C       -0.04050000       3.26030000       1.87160000
C        1.27480000       2.99820000       1.12550000
C        0.68010000       3.44310000      -0.16010000
N        1.10410000       2.04860000      -0.01690000
H       -1.70440000       2.14020000      -1.00520000
H       -2.09490000       1.67170000       0.66110000
H       -1.38630000       4.29620000       0.35670000
H        0.01690000       4.20980000       2.40930000
H       -0.42330000       2.48620000       2.54470000
H        2.28120000       3.09550000       1.51410000
H        1.06990000       4.04020000      -0.97480000
