18
Properties=species:S:1:pos:R:3 gdb_20544=T pbc="F F F"
C       -0.03860000       1.57590000       0.17950000
C       -0.05810000       0.04570000       0.01660000
C        0.85760000      -0.63220000       1.05100000
C       -1.46020000      -0.49740000       0.08260000
N       -1.99050000      -1.12640000      -0.96580000
N       -3.23140000      -1.47280000      -0.56740000
C       -3.50880000      -1.08520000       0.69990000
C       -2.38050000      -0.44510000       1.16150000
H        0.98210000       1.96190000       0.08690000
H       -0.65860000       2.06180000      -0.57950000
H       -0.41910000       1.87290000       1.16330000
H        0.31490000      -0.19800000      -0.98460000
H        0.51620000      -0.43080000       2.07260000
H        0.87510000      -1.71710000       0.91200000
H        1.88350000      -0.25880000       0.96330000
H       -3.82800000      -1.96770000      -1.20760000
H       -4.46230000      -1.29020000       1.16110000
H       -2.24030000      -0.00390000       2.13510000
