14
Properties=species:S:1:pos:R:3 gdb_45830=T pbc="F F F"
O        0.00460000      -0.03040000       0.18510000
C        0.01200000       1.14440000      -0.02060000
O       -1.18700000       1.80690000      -0.17420000
C       -1.21610000       3.11920000      -0.59910000
N       -0.26190000       3.87820000      -0.90770000
C        1.09280000       3.40660000      -0.75120000
C        1.73400000       3.90220000       0.56560000
O        1.59390000       2.58830000       1.16150000
C        1.25830000       2.00310000      -0.11460000
H       -2.25010000       3.44610000      -0.66410000
H        1.65450000       3.60210000      -1.66620000
H        2.78680000       4.19650000       0.48100000
H        1.17000000       4.66760000       1.10510000
H        2.07200000       1.38350000      -0.50680000
