18
Properties=species:S:1:pos:R:3 gdb_127035=T pbc="F F F"
C        0.02790000       1.47310000      -0.05600000
C        0.01840000      -0.04370000      -0.02750000
O        0.70960000      -0.50560000      -1.19160000
C        0.80330000      -1.84360000      -1.33400000
N        0.30340000      -2.72410000      -0.47920000
N        0.63290000      -3.91810000      -1.02230000
C        1.33160000      -3.80100000      -2.18650000
C        1.46370000      -2.45060000      -2.43320000
N        2.14640000      -1.77870000      -3.46550000
H        1.05270000       1.85550000      -0.05070000
H       -0.47470000       1.84870000      -0.95210000
H       -0.49250000       1.86660000       0.82230000
H        0.51640000      -0.43540000       0.86780000
H       -1.00330000      -0.44300000      -0.03000000
H        0.34400000      -4.75900000      -0.55780000
H        1.67270000      -4.66270000      -2.73760000
H        1.91780000      -2.13850000      -4.38420000
H        1.92510000      -0.79040000      -3.44300000
