23
Properties=species:S:1:pos:R:3 gdb_109166=T pbc="F F F"
C       -0.22750000       1.53750000      -0.03880000
C        0.08420000       0.03160000       0.02300000
C        0.79400000      -0.47770000      -1.19720000
C        2.04520000      -0.94000000      -1.28480000
C        2.41150000      -1.40310000      -2.67270000
C        1.23590000      -0.87950000      -3.53870000
C        0.86890000      -1.75070000      -4.73700000
C        0.07760000      -0.64000000      -2.52740000
O       -0.88680000      -1.69680000      -2.45320000
H        0.69260000       2.12450000      -0.12270000
H       -0.85860000       1.77980000      -0.89950000
H       -0.75700000       1.86120000       0.86250000
H        0.68630000      -0.18020000       0.91390000
H       -0.85790000      -0.52050000       0.13650000
H        2.73520000      -1.00250000      -0.44800000
H        3.37770000      -1.01040000      -3.01060000
H        2.50160000      -2.49890000      -2.71610000
H        1.52620000       0.11430000      -3.90170000
H        0.53360000      -2.74190000      -4.41820000
H        0.05610000      -1.30460000      -5.31880000
H        1.72920000      -1.88000000      -5.40210000
H       -0.51810000       0.23270000      -2.81510000
H       -0.45580000      -2.44690000      -2.02820000
