13
Properties=species:S:1:pos:R:3 gdb_1235=T pbc="F F F"
C        0.05130000       1.55890000      -0.02090000
C        0.03930000       0.02280000      -0.02600000
O        0.81270000      -0.51760000       1.04080000
C       -1.32930000      -0.50210000      -0.02110000
C       -2.46340000      -0.92410000       0.01970000
C       -3.73810000      -1.39820000       0.06280000
C       -4.86940000      -1.81850000       0.10230000
H        1.08640000       1.90990000      -0.02480000
H       -0.46650000       1.95630000      -0.89840000
H       -0.44950000       1.94300000       0.87350000
H        0.54390000      -0.32970000      -0.93420000
H        0.34470000      -0.33280000       1.86300000
H       -5.86400000      -2.18840000       0.13520000
