16
Properties=species:S:1:pos:R:3 gdb_33606=T pbc="F F F"
C        0.09280000      -1.21170000       0.08610000
C        0.03250000      -0.00990000       0.03840000
C       -0.05430000       1.39810000      -0.02190000
C       -0.05280000       2.48900000       1.06030000
C        0.98780000       2.49440000      -0.05270000
N        0.34020000       3.27980000      -1.14610000
C       -0.35630000       4.41190000      -0.42290000
C       -1.13860000       3.33990000       0.35850000
C       -0.89280000       2.39690000      -0.86600000
H        0.14980000      -2.27090000       0.12670000
H        0.17690000       2.38080000       2.11090000
H        2.05890000       2.43200000       0.08510000
H        0.30250000       5.09730000       0.11840000
H       -0.97430000       4.96540000      -1.13590000
H       -2.09690000       3.49420000       0.85250000
H       -1.58190000       2.17820000      -1.67850000
