21
Properties=species:S:1:pos:R:3 gdb_92718=T pbc="F F F"
C       -0.12980000       1.55560000      -0.03120000
C        0.09810000       0.04320000      -0.00510000
C        0.91220000      -0.52660000      -1.19740000
C        1.56420000      -1.74990000      -0.60420000
C        1.49170000      -1.78400000       0.72930000
C        2.03150000      -2.82760000       1.65570000
C        0.80970000      -0.52620000       1.26240000
C        1.88960000       0.38570000       1.82090000
O        2.00420000       0.68950000       2.98100000
H        0.81240000       2.11370000      -0.04670000
H       -0.69400000       1.84370000      -0.92420000
H       -0.69930000       1.88810000       0.84280000
H       -0.88170000      -0.44840000      -0.02710000
H        0.27380000      -0.75370000      -2.05930000
H        1.66280000       0.19250000      -1.55740000
H        2.04520000      -2.51240000      -1.20880000
H        2.54280000      -3.62380000       1.10810000
H        2.73780000      -2.39670000       2.37600000
H        1.22720000      -3.28170000       2.24810000
H        0.11120000      -0.72900000       2.08120000
H        2.62820000       0.73520000       1.06240000
