19
Properties=species:S:1:pos:R:3 gdb_83071=T pbc="F F F"
C       -0.15580000       1.50190000       0.09120000
C        0.07540000       0.00940000       0.06620000
C        1.38110000      -0.64780000      -0.22830000
C        2.68410000       0.14720000      -0.10540000
C        2.75080000       0.53210000       1.35810000
C        1.73560000       0.02640000       2.06090000
C        0.79760000      -0.74920000       1.20310000
C        0.16010000      -1.98020000       1.70300000
O        0.25070000      -2.39550000       2.83400000
H        0.67050000       2.03690000       0.56280000
H       -0.27110000       1.88290000      -0.92960000
H       -1.07070000       1.74260000       0.64210000
H       -0.77610000      -0.55140000      -0.31700000
H        1.37270000      -1.52310000      -0.86860000
H        3.54660000      -0.46410000      -0.39920000
H        2.69310000       1.02600000      -0.76410000
H        3.53770000       1.16250000       1.75660000
H        1.57300000       0.13730000       3.12520000
H       -0.44810000      -2.52040000       0.93850000
