16
Properties=species:S:1:pos:R:3 gdb_108462=T pbc="F F F"
O       -0.11920000       1.43520000      -0.06910000
C       -0.04760000       0.05400000       0.20760000
C       -1.40590000      -0.58820000       0.06850000
O       -2.34470000      -0.32820000       1.13990000
C       -2.76420000      -1.71520000       1.18290000
C       -1.86060000      -2.06910000       0.00180000
O       -2.50510000      -1.81500000      -1.28760000
C       -2.07550000      -0.50100000      -1.29320000
N       -2.16480000       0.40830000      -2.15160000
H       -0.56880000       1.53900000      -0.92060000
H        0.65640000      -0.47210000      -0.46000000
H        0.31450000      -0.05270000       1.23480000
H       -2.47650000      -2.18540000       2.13050000
H       -3.83640000      -1.84510000       1.00670000
H       -1.24660000      -2.96640000      -0.01900000
H       -2.67770000       0.12170000      -2.98650000
