20
Properties=species:S:1:pos:R:3 gdb_98603=T pbc="F F F"
C        1.63780000       1.85560000      -0.73240000
C        1.84510000       0.36540000      -0.98800000
C        0.55480000      -0.39840000      -1.22990000
O       -0.53900000       0.12000000      -1.18500000
C        0.71970000      -1.88240000      -1.51640000
C       -0.32980000      -2.68300000      -2.31350000
C        0.19730000      -1.90500000      -3.53980000
N        1.50930000      -2.25670000      -2.80080000
C        0.84950000      -3.63660000      -2.60940000
H        1.14370000       2.33260000      -1.58300000
H        1.00340000       2.01810000       0.14270000
H        2.59560000       2.35570000      -0.56460000
H        2.49540000       0.18140000      -1.85400000
H        2.36420000      -0.11590000      -0.14680000
H        1.14950000      -2.37300000      -0.63310000
H       -1.36050000      -2.91920000      -2.03630000
H        0.12200000      -2.38350000      -4.51960000
H       -0.01020000      -0.83630000      -3.60560000
H        1.27550000      -4.21280000      -1.78310000
H        0.81380000      -4.22440000      -3.53030000
