19
Properties=species:S:1:pos:R:3 gdb_56687=T pbc="F F F"
N        0.13590000       1.31830000       0.33290000
C        0.08070000      -0.09510000      -0.03390000
C       -1.29210000      -0.59590000       0.17090000
N       -2.35660000      -1.01620000       0.32640000
C        0.53900000      -0.41480000      -1.47910000
O       -0.26220000       0.40010000      -2.30080000
C        2.08800000      -0.33580000      -1.63790000
C        2.14630000      -1.88060000      -1.49150000
C        0.62160000      -1.93870000      -1.78230000
H        1.10510000       1.62100000       0.34870000
H       -0.32810000       1.85430000      -0.39560000
H        0.72440000      -0.65030000       0.65880000
H       -0.06730000       0.20020000      -3.22120000
H        2.35110000      -0.00900000      -2.64870000
H        2.64730000       0.27800000      -0.92570000
H        2.80210000      -2.41640000      -2.17920000
H        2.38880000      -2.19530000      -0.47350000
H       -0.00390000      -2.60530000      -1.18410000
H        0.41480000      -2.13180000      -2.83990000
