18
Properties=species:S:1:pos:R:3 gdb_38096=T pbc="F F F"
C       -0.01230000       1.54470000       0.18420000
C        1.41380000       1.97110000      -0.09680000
C        2.18980000       0.96630000      -0.50740000
C        1.42060000      -0.33580000      -0.61070000
C        1.92270000      -1.55660000       0.13580000
C        1.11960000      -1.87110000       1.15830000
C       -0.03090000      -0.92510000       1.26040000
N       -1.01520000      -0.88640000       0.14290000
C        0.11320000       0.03020000       0.12180000
H       -0.38400000       1.89940000       1.15210000
H       -0.70700000       1.92840000      -0.57650000
H        1.74010000       2.99980000       0.00970000
H        3.23560000       1.05230000      -0.78040000
H        1.26050000      -0.58650000      -1.67210000
H        2.79050000      -2.12470000      -0.18160000
H        1.25860000      -2.70600000       1.83590000
H       -0.44090000      -0.64790000       2.22670000
H       -0.85660000      -1.67080000      -0.48810000
