16
Properties=species:S:1:pos:R:3 gdb_46476=T pbc="F F F"
O       -0.01630000       0.05210000       0.28830000
C       -0.04490000       1.22390000       0.03230000
C       -1.25360000       2.14770000      -0.10100000
N       -0.78300000       3.35670000      -0.81090000
C        0.64480000       3.46960000      -0.54130000
C        1.47910000       4.52380000      -1.21430000
C        1.17730000       4.67110000       0.24270000
C        1.20000000       2.13130000      -0.21190000
O        2.35030000       1.79200000      -0.09520000
H       -2.08010000       1.66150000      -0.62310000
H       -1.60870000       2.41300000       0.90490000
H       -0.91410000       3.21600000      -1.80830000
H        2.48010000       4.22350000      -1.50500000
H        0.96090000       5.17530000      -1.90940000
H        0.42740000       5.39530000       0.53840000
H        1.97140000       4.47770000       0.95500000
