19
Properties=species:S:1:pos:R:3 gdb_84846=T pbc="F F F"
O        0.48030000       0.59050000      -0.99630000
C        0.07390000      -0.27020000       0.07610000
C        0.62320000       0.16270000       1.40690000
C       -0.02110000      -0.00870000       2.56110000
C       -1.38470000      -0.63820000       2.67110000
C       -2.16200000      -0.61750000       1.36570000
C       -2.30490000       0.68710000       0.60050000
C       -1.43230000      -0.43450000       0.07370000
O       -1.91110000      -1.16520000      -1.01930000
H        0.12630000       1.46620000      -0.80070000
H        0.50550000      -1.24240000      -0.19790000
H        1.61650000       0.60310000       1.37840000
H        0.45230000       0.29830000       3.49060000
H       -1.27120000      -1.67720000       3.01360000
H       -1.96180000      -0.13320000       3.45750000
H       -3.01880000      -1.28220000       1.31910000
H       -3.23700000       0.85150000       0.07300000
H       -1.84180000       1.57530000       1.01950000
H       -1.54610000      -0.73870000      -1.80520000
