20
Properties=species:S:1:pos:R:3 gdb_67837=T pbc="F F F"
C       -0.00980000       1.53550000      -0.01270000
C       -0.00370000       0.01170000      -0.02950000
C       -1.28220000      -0.63190000      -0.48720000
C       -1.72930000      -1.54120000       0.37880000
C       -0.84220000      -1.71230000       1.59480000
C        0.29860000      -0.70160000       1.34740000
C        1.62700000      -1.20270000       0.75160000
N        1.29290000      -2.04210000      -0.42280000
C        1.33980000      -0.56980000      -0.56400000
H        0.93000000       1.92920000       0.39120000
H       -0.13210000       1.94160000      -1.02400000
H       -0.83150000       1.91620000       0.60260000
H       -1.76420000      -0.37680000      -1.42570000
H       -2.63090000      -2.13090000       0.24370000
H       -1.38630000      -1.51060000       2.52630000
H       -0.46620000      -2.74040000       1.66410000
H        0.45250000      -0.00070000       2.17040000
H        2.57020000      -1.33160000       1.26940000
H        2.17310000      -2.40260000      -0.79020000
H        2.01040000      -0.10070000      -1.27570000
