16
Properties=species:S:1:pos:R:3 gdb_54720=T pbc="F F F"
N       -0.09440000       1.34190000      -0.19850000
C       -0.04670000      -0.03560000      -0.08920000
O        0.84610000      -0.71530000      -0.55490000
N       -1.12030000      -0.56830000       0.63830000
C       -2.54450000      -0.39500000       0.19880000
C       -2.48900000      -1.56400000      -0.85480000
N       -3.63230000      -2.33440000      -0.27110000
C       -2.97040000      -1.71400000       0.92030000
C       -1.55050000      -1.96140000       0.33360000
H        0.77710000       1.75750000      -0.49010000
H       -0.58990000       1.84730000       0.51960000
H       -3.05240000       0.56920000       0.15280000
H       -2.26330000      -1.52450000      -1.92020000
H       -4.51830000      -1.86300000      -0.47090000
H       -3.30660000      -1.84610000       1.94820000
H       -0.90290000      -2.82720000       0.43410000
