21
Properties=species:S:1:pos:R:3 gdb_41340=T pbc="F F F"
C       -0.01220000       1.51660000       0.23410000
C        1.52190000       1.51650000      -0.08790000
C        1.29770000       0.20270000      -0.86110000
C        2.06090000      -1.10840000      -0.94020000
O        1.12450000      -1.93450000      -1.68010000
C        0.07650000      -1.07220000      -2.18560000
C       -0.94590000      -0.78370000      -1.05520000
C       -0.02690000      -0.01270000      -0.07640000
C        0.78320000       0.27700000      -2.31820000
H       -0.30820000       1.82030000       1.24050000
H       -0.58610000       2.10530000      -0.48640000
H        1.93440000       2.36630000      -0.63770000
H        2.11520000       1.36600000       0.81920000
H        3.01630000      -1.05200000      -1.48170000
H        2.23890000      -1.56440000       0.04080000
H       -0.33050000      -1.53820000      -3.08430000
H       -1.79010000      -0.19300000      -1.42990000
H       -1.34150000      -1.70710000      -0.62530000
H        0.14430000      -0.57320000       0.84710000
H        0.10330000       1.10850000      -2.51450000
H        1.58730000       0.27970000      -3.05930000
