25
Properties=species:S:1:pos:R:3 gdb_118054=T pbc="F F F"
C        0.27640000       1.51020000       0.08980000
C        0.06640000      -0.00190000      -0.03700000
C        0.73320000      -0.64240000      -1.27210000
C        2.26490000      -0.62850000      -1.16010000
C        0.15900000      -2.05540000      -1.51180000
O       -1.26230000      -2.01320000      -1.65290000
C        0.73700000      -2.80690000      -2.72000000
O        2.00680000      -3.33810000      -2.41110000
C        2.54920000      -4.10180000      -3.46180000
H        1.33090000       1.77580000       0.21190000
H       -0.09660000       2.03720000      -0.79640000
H       -0.26130000       1.90510000       0.95770000
H        0.44740000      -0.50240000       0.86400000
H       -1.00590000      -0.21520000      -0.07460000
H        0.45240000      -0.04280000      -2.15630000
H        2.63140000       0.39100000      -1.01090000
H        2.59580000      -1.23260000      -0.30790000
H        2.74620000      -1.03680000      -2.04950000
H        0.33980000      -2.67690000      -0.62610000
H       -1.46650000      -1.39040000      -2.35990000
H        0.03280000      -3.61510000      -2.97170000
H        0.79830000      -2.13680000      -3.59830000
H        1.90110000      -4.95390000      -3.72090000
H        2.70070000      -3.49920000      -4.37160000
H        3.51670000      -4.48230000      -3.12530000
