21
Properties=species:S:1:pos:R:3 gdb_58356=T pbc="F F F"
C        0.02870000       1.51120000      -0.08260000
C        0.00880000      -0.02190000       0.02750000
C        0.83750000      -0.46900000       1.23980000
C       -1.45270000      -0.53620000       0.07360000
C       -2.21750000      -0.07250000      -1.16500000
O       -3.37890000       0.24540000      -1.16570000
C       -1.56580000      -2.05440000       0.15290000
C       -2.79590000      -2.77920000      -0.18520000
O       -1.68720000      -2.75420000      -1.09370000
H        1.05510000       1.88170000      -0.16480000
H       -0.52370000       1.87360000      -0.95570000
H       -0.42220000       1.96960000       0.80550000
H        0.47440000      -0.43870000      -0.87710000
H        1.84070000      -0.03360000       1.19250000
H        0.37640000      -0.13360000       2.17630000
H        0.95860000      -1.55390000       1.29260000
H       -1.96160000      -0.11120000       0.94900000
H       -1.61900000      -0.06570000      -2.10160000
H       -0.89060000      -2.53440000       0.85990000
H       -2.98770000      -3.74390000       0.28150000
H       -3.67510000      -2.22610000      -0.50760000
