17
Properties=species:S:1:pos:R:3 gdb_2268=T pbc="F F F"
C       -0.07370000       1.54310000      -0.02600000
C        0.10160000       0.04020000       0.03760000
O        1.16660000      -0.46530000      -0.82450000
C        1.71110000      -1.20730000       0.26890000
C        2.19570000      -0.28130000       1.34130000
C        0.72200000      -0.64620000       1.26390000
C       -0.05380000      -1.26330000       2.38990000
H        0.82950000       2.06790000       0.29560000
H       -0.30310000       1.85370000      -1.05040000
H       -0.90550000       1.85320000       0.61600000
H       -0.83670000      -0.46270000      -0.23710000
H        2.07720000      -2.20920000       0.07400000
H        2.72120000      -0.75330000       2.16670000
H        2.56220000       0.70480000       1.07020000
H       -0.43760000      -0.49970000       3.07760000
H       -0.91010000      -1.83710000       2.01730000
H        0.57300000      -1.94300000       2.97590000
