16
Properties=species:S:1:pos:R:3 gdb_98491=T pbc="F F F"
C       -0.11210000       1.54420000      -0.29700000
C       -0.31790000       0.05100000      -0.53970000
C       -1.25610000      -0.58130000       0.46770000
O       -1.71490000      -0.00560000       1.42210000
C       -1.61390000      -2.04890000       0.24440000
C       -2.23620000      -2.46960000      -1.03930000
O       -0.88080000      -2.76540000      -0.75340000
C       -1.94450000      -2.79890000       1.44180000
N       -2.19820000      -3.41050000       2.38780000
H        0.59480000       1.95350000      -1.02320000
H       -1.05460000       2.09080000      -0.38530000
H        0.27650000       1.72470000       0.70780000
H       -0.68780000      -0.14630000      -1.55350000
H        0.62880000      -0.50340000      -0.48380000
H       -2.92090000      -3.31450000      -1.02570000
H       -2.41070000      -1.71990000      -1.80860000
