15
Properties=species:S:1:pos:R:3 gdb_3294=T pbc="F F F"
O       -0.16190000       1.46710000       0.17520000
C       -0.02340000       0.07750000       0.06850000
C        0.37350000      -0.77060000       1.32230000
C       -0.84610000      -1.70160000       1.05640000
C       -2.10500000      -1.27010000       1.81750000
O       -2.37970000      -0.22640000       0.85440000
C       -1.34850000      -0.70070000      -0.03130000
H        0.71670000       1.85890000       0.19820000
H        0.61090000      -0.20700000      -0.78670000
H        1.35590000      -1.24470000       1.26840000
H        0.29610000      -0.21480000       2.26080000
H       -0.66050000      -2.76080000       0.88980000
H       -2.90990000      -2.01780000       1.83160000
H       -1.96130000      -0.87670000       2.83160000
H       -1.73800000      -0.95010000      -1.02260000
