18
Properties=species:S:1:pos:R:3 gdb_26342=T pbc="F F F"
C       -0.01370000       1.37900000      -0.04720000
N        0.01080000      -0.05250000      -0.25780000
C        1.21520000      -0.73550000       0.18810000
C       -1.19590000      -0.70200000      -0.07820000
C       -2.43770000      -0.18580000       0.13040000
O       -3.32880000      -1.26520000       0.15590000
C       -2.54370000      -2.33760000      -0.01190000
N       -3.16650000      -3.55870000      -0.08120000
N       -1.27600000      -2.09300000      -0.15160000
H        0.94220000       1.80760000      -0.35980000
H       -0.80450000       1.82820000      -0.65690000
H       -0.19090000       1.65850000       1.00630000
H        1.37230000      -0.65610000       1.27740000
H        1.14550000      -1.79070000      -0.07390000
H        2.08320000      -0.29790000      -0.31510000
H       -2.86710000       0.78790000       0.26380000
H       -4.02220000      -3.62560000       0.45000000
H       -2.53550000      -4.33170000       0.06820000
