15
Properties=species:S:1:pos:R:3 gdb_31459=T pbc="F F F"
C       -0.08800000       1.44550000      -0.16090000
N        0.26400000       0.05100000       0.09070000
C        0.69910000      -0.73980000      -0.94560000
C        0.64310000      -2.08170000      -1.18720000
C        1.38520000      -2.28100000      -2.40830000
C        1.81720000      -1.05330000      -2.81230000
O        1.40310000      -0.10750000      -1.92420000
C        1.61820000      -3.50780000      -3.07780000
N        1.80130000      -4.51640000      -3.61670000
H        0.77580000       1.97130000      -0.57150000
H       -0.92930000       1.56470000      -0.85880000
H       -0.34980000       1.91160000       0.79090000
H       -0.38070000      -0.43620000       0.69500000
H        0.15230000      -2.83680000      -0.59730000
H        2.38230000      -0.70550000      -3.65880000
