19
Properties=species:S:1:pos:R:3 gdb_72802=T pbc="F F F"
C       -0.21350000       1.54810000       0.00760000
C        0.01440000       0.04030000       0.00070000
C       -1.22930000      -0.84840000       0.36590000
C       -0.38920000      -1.56930000       1.45220000
C        0.81710000      -0.61030000       1.16670000
C        2.02350000      -1.29390000       0.52650000
O        2.92130000      -1.86370000       1.10390000
C        1.84840000      -1.15690000      -0.94340000
C        0.75080000      -0.44230000      -1.22240000
H        0.73360000       2.09310000      -0.06740000
H       -0.84440000       1.85340000      -0.83550000
H       -0.71400000       1.86190000       0.92930000
H       -2.05500000      -0.25900000       0.77330000
H       -1.61820000      -1.47400000      -0.44100000
H       -0.78650000      -1.49220000       2.46540000
H       -0.17390000      -2.62080000       1.25080000
H        1.10530000       0.02620000       2.00420000
H        2.53510000      -1.60210000      -1.65260000
H        0.38680000      -0.21850000      -2.22200000
