19
Properties=species:S:1:pos:R:3 gdb_109212=T pbc="F F F"
C       -0.02980000       1.46700000       0.01470000
C        0.03120000      -0.03830000      -0.00130000
C       -0.76430000      -0.85370000       0.94770000
N        0.71010000      -0.72580000       1.13570000
C        1.38080000      -1.80650000       0.48760000
C        2.15050000      -2.79090000       1.31410000
O        2.72650000      -3.80230000       0.53140000
N        1.33140000      -1.88440000      -0.78330000
C        0.51980000      -0.75830000      -1.26660000
H        0.92650000       1.89860000      -0.29890000
H       -0.80440000       1.82820000      -0.67080000
H       -0.26010000       1.83960000       1.01610000
H       -1.35440000      -0.36230000       1.71560000
H       -1.13950000      -1.82190000       0.62500000
H        2.91740000      -2.23420000       1.87680000
H        1.47320000      -3.22080000       2.06960000
H        2.52180000      -3.57250000      -0.38690000
H       -0.29050000      -1.12290000      -1.90750000
H        1.14040000      -0.09310000      -1.88030000
