20
Properties=species:S:1:pos:R:3 gdb_75250=T pbc="F F F"
C       -0.22370000       1.46270000       0.10730000
C       -0.02340000      -0.00440000      -0.06110000
N       -0.22600000      -0.67970000      -1.11810000
C        0.11040000      -2.06850000      -0.78850000
C        0.55430000      -2.04670000       0.69940000
C       -0.13240000      -3.03990000       1.66780000
C        1.14600000      -3.92120000       1.60220000
C        1.91750000      -2.68970000       1.05120000
O        0.42260000      -0.65540000       1.05160000
H        0.71480000       1.94200000       0.40350000
H       -0.57680000       1.89470000      -0.82840000
H       -0.95210000       1.65730000       0.90090000
H       -0.76170000      -2.71310000      -0.95100000
H        0.90550000      -2.42830000      -1.45250000
H       -0.26270000      -2.58320000       2.65240000
H       -1.08230000      -3.47560000       1.34700000
H        1.50160000      -4.35380000       2.53850000
H        1.05930000      -4.71950000       0.86060000
H        2.62500000      -2.84230000       0.23180000
H        2.40970000      -2.12670000       1.84860000
