15
Properties=species:S:1:pos:R:3 gdb_3587=T pbc="F F F"
C       -0.08230000       1.44390000       0.11880000
C        1.29750000       0.84470000       0.04600000
C        2.05350000       0.50650000       1.33660000
C        1.21030000      -0.54060000       2.05300000
O       -0.10300000      -0.10180000       2.42930000
C        0.03820000      -0.87050000       1.22390000
C        0.07020000      -0.05020000      -0.04590000
H       -0.44760000       1.79960000       1.07410000
H       -0.42030000       2.00540000      -0.74560000
H        1.88880000       1.05670000      -0.83800000
H        3.02930000       0.06930000       1.09480000
H        2.23690000       1.38110000       1.97050000
H        1.67620000      -1.23650000       2.74780000
H       -0.44930000      -1.84130000       1.23490000
H       -0.22890000      -0.52990000      -0.97000000
