19
Properties=species:S:1:pos:R:3 gdb_78531=T pbc="F F F"
C       -0.12180000       1.49760000       0.01190000
C        0.10870000       0.02530000      -0.03180000
O       -0.83940000      -0.84060000       0.64960000
C        0.57380000      -0.95150000       0.94710000
C        1.30150000      -1.79080000      -0.14510000
C        2.69350000      -2.30810000       0.07530000
C        0.37410000      -2.22550000      -1.25000000
O       -0.89470000      -2.77430000      -1.15300000
C        0.76790000      -0.76580000      -1.19760000
H        0.79970000       2.03710000      -0.22990000
H       -0.88460000       1.79240000      -0.71760000
H       -0.45760000       1.80140000       1.00680000
H        0.86460000      -0.85580000       1.98760000
H        2.69630000      -3.14320000       0.78690000
H        3.12920000      -2.66980000      -0.86140000
H        3.35940000      -1.53200000       0.47260000
H        0.92470000      -2.74430000      -2.03400000
H       -1.34090000      -2.26890000      -0.45950000
H        1.31570000      -0.27200000      -1.99260000
