19
Properties=species:S:1:pos:R:3 gdb_89428=T pbc="F F F"
O       -0.13010000       1.47970000      -0.13800000
C        0.03380000       0.06980000      -0.01560000
C       -1.37370000      -0.53060000       0.08930000
C       -1.34590000      -2.05810000       0.03940000
O       -1.53110000      -2.71020000       1.26900000
C       -1.80560000      -2.77100000      -1.21140000
C       -0.32200000      -2.69300000      -0.84930000
C        0.60330000      -1.78990000      -1.57800000
C        0.77260000      -0.52340000      -1.19670000
H        0.74170000       1.88600000      -0.10760000
H        0.58540000      -0.16400000       0.91120000
H       -1.84280000      -0.20690000       1.02340000
H       -1.96330000      -0.11840000      -0.73550000
H       -2.45210000      -2.59230000       1.52790000
H       -2.28540000      -3.73530000      -1.08310000
H       -2.16270000      -2.17650000      -2.04600000
H        0.09850000      -3.62590000      -0.48410000
H        1.14380000      -2.19200000      -2.43160000
H        1.45300000       0.13660000      -1.73000000
