24
Properties=species:S:1:pos:R:3 gdb_120737=T pbc="F F F"
C       -0.26380000       1.51410000       0.06390000
C       -0.20870000       0.00300000      -0.17370000
C        1.01700000      -0.42900000      -0.98980000
C        1.07220000      -1.92650000      -1.19760000
N        0.19020000      -2.52210000      -2.22400000
C        1.65310000      -2.61010000      -2.38450000
C        2.20160000      -1.89960000      -3.62500000
C        2.54010000      -2.91260000      -4.72470000
O        1.28300000      -0.93280000      -4.10320000
H        0.61800000       1.86180000       0.61390000
H       -0.29650000       2.06140000      -0.88460000
H       -1.14920000       1.79610000       0.64240000
H       -0.20930000      -0.52090000       0.79220000
H       -1.11420000      -0.32380000      -0.69950000
H        1.02130000       0.07340000      -1.96070000
H        1.93330000      -0.11990000      -0.46770000
H        1.14870000      -2.49360000      -0.26860000
H       -0.21340000      -3.40120000      -1.91800000
H        2.11690000      -3.57670000      -2.19420000
H        3.11770000      -1.35920000      -3.34880000
H        1.65440000      -3.50000000      -4.99110000
H        2.88240000      -2.38660000      -5.61940000
H        3.32890000      -3.60240000      -4.40350000
H        0.41050000      -1.26350000      -3.83360000
