16
Properties=species:S:1:pos:R:3 gdb_65890=T pbc="F F F"
O        0.08150000       1.59690000      -0.19380000
C       -0.00590000       0.20470000       0.01970000
C        0.17950000      -0.32640000       1.48690000
C       -1.10790000      -1.17220000       1.30930000
C       -1.48060000      -0.29430000       0.08670000
C        0.80840000      -0.52860000      -0.94290000
C        1.51540000      -1.11190000      -1.73240000
C        2.30540000      -1.77640000      -2.62530000
N        2.97960000      -2.34210000      -3.38390000
H        1.01140000       1.84430000      -0.25560000
H        1.11250000      -0.83950000       1.72540000
H        0.03270000       0.51230000       2.17190000
H       -0.88610000      -2.20270000       1.02310000
H       -1.81140000      -1.18480000       2.14260000
H       -2.10990000       0.55560000       0.36100000
H       -1.88530000      -0.77640000      -0.80360000
