14
Properties=species:S:1:pos:R:3 gdb_43525=T pbc="F F F"
O        0.01940000      -0.03170000       0.01200000
C       -0.03850000       1.17460000       0.02930000
C       -1.29580000       2.04070000       0.01530000
C       -0.80240000       3.47450000       0.07500000
O       -1.44660000       4.47640000       0.18390000
C        0.76180000       3.44580000      -0.00540000
N        1.04180000       2.02260000       0.07580000
C        1.25400000       4.08130000      -1.22350000
C        1.66000000       4.59290000      -2.23160000
H       -1.86900000       1.86660000      -0.90140000
H       -1.95600000       1.80830000       0.85530000
H        1.14460000       3.98660000       0.87100000
H        1.97540000       1.65020000      -0.01040000
H        2.01700000       5.05020000      -3.12170000
