18
Properties=species:S:1:pos:R:3 gdb_19138=T pbc="F F F"
O       -0.12050000       0.17250000       0.77490000
C        0.08200000       1.01800000      -0.06690000
C        1.27370000       1.90880000      -0.09000000
C        1.81510000       2.26810000       1.29580000
C        2.54610000       1.26880000       0.47040000
C        1.41600000       2.92250000      -1.19120000
C        0.98130000       2.65440000      -2.61210000
C        0.23990000       3.66860000      -1.77430000
H       -0.64790000       1.16520000      -0.89160000
H        2.22980000       3.26390000       1.40630000
H        1.24070000       1.90040000       2.13820000
H        2.46560000       0.22620000       0.75530000
H        3.47800000       1.55780000      -0.00280000
H        2.32690000       3.50740000      -1.09310000
H        1.61440000       3.01210000      -3.41660000
H        0.48590000       1.71410000      -2.83000000
H       -0.75560000       3.41220000      -1.42720000
H        0.36530000       4.72070000      -2.00510000
