21
Properties=species:S:1:pos:R:3 gdb_42120=T pbc="F F F"
C        0.24620000       1.30600000       0.29660000
C        1.49630000       2.16810000      -0.01740000
C        1.35550000       3.03430000      -1.30030000
C        1.00880000       2.14620000      -2.40210000
C        0.68240000       1.17530000      -3.03540000
C        0.29330000      -0.19050000      -3.35790000
C       -0.17400000      -0.85490000      -2.03900000
O        0.83430000      -0.73540000      -1.05340000
C        0.44040000      -0.21980000       0.20820000
H       -0.09120000       1.50290000       1.32210000
H       -0.58320000       1.60310000      -0.35430000
H        1.71780000       2.83390000       0.82420000
H        2.36780000       1.51810000      -0.14660000
H        0.57900000       3.79690000      -1.15470000
H        2.28970000       3.57730000      -1.48660000
H       -0.51320000      -0.25010000      -4.09880000
H        1.14360000      -0.75030000      -3.76550000
H       -1.10600000      -0.37650000      -1.71260000
H       -0.38440000      -1.92000000      -2.21720000
H        1.23970000      -0.52120000       0.89570000
H       -0.48310000      -0.71420000       0.54970000
