13
Properties=species:S:1:pos:R:3 gdb_132924=T pbc="F F F"
N       -0.00690000       1.34540000       0.06000000
C       -0.01500000      -0.00650000       0.02100000
N       -1.16130000      -0.64480000       0.01600000
C       -1.20470000      -2.01940000      -0.00020000
O       -2.21450000      -2.69060000      -0.00390000
N        0.05480000      -2.68280000      -0.01600000
C        1.24950000      -2.03590000      -0.01830000
C        1.24970000      -0.68810000       0.00110000
F        2.38390000       0.03330000      -0.00250000
H        0.85290000       1.85300000      -0.04580000
H       -0.88770000       1.82590000      -0.01250000
H        0.00920000      -3.69030000      -0.03040000
H        2.15860000      -2.62380000      -0.03580000
