17
Properties=species:S:1:pos:R:3 gdb_48546=T pbc="F F F"
O       -0.15460000       0.02470000      -0.12380000
C       -0.00520000       1.21090000       0.06340000
C        1.27510000       1.90640000      -0.00840000
C        1.87960000       3.04170000       0.87560000
C        3.19710000       2.26780000       0.95590000
C        2.70500000       1.35040000      -0.21220000
C        3.11010000       1.95680000      -1.55230000
O        2.54370000       3.28220000      -1.53140000
C        1.53340000       3.29160000      -0.55820000
H       -0.86860000       1.87000000       0.31570000
H        1.38440000       3.56870000       1.68390000
H        4.11530000       2.83770000       0.78080000
H        3.28060000       1.71720000       1.89470000
H        2.85650000       0.27740000      -0.11810000
H        4.19280000       2.05320000      -1.67850000
H        2.69810000       1.38810000      -2.39790000
H        0.70670000       3.95310000      -0.79130000
