18
Properties=species:S:1:pos:R:3 gdb_41103=T pbc="F F F"
C        0.01570000       1.46180000       0.08910000
C        1.56700000       1.55110000      -0.01800000
C        2.03500000       1.37180000      -1.49910000
C        1.65430000      -0.13670000      -1.38190000
C        2.71000000      -1.22430000      -1.08100000
O        2.54920000      -0.99450000       0.36940000
C        1.55500000      -0.01850000       0.11930000
C       -0.00060000      -0.08740000      -0.07820000
N        0.24060000      -0.55870000      -1.47450000
H       -0.30610000       1.72530000       1.10130000
H       -0.56550000       2.03830000      -0.63790000
H        2.07010000       2.27230000       0.62570000
H        1.52200000       1.96390000      -2.26280000
H        3.11410000       1.50590000      -1.61880000
H        2.41270000      -2.24020000      -1.35690000
H        3.74000000      -1.02420000      -1.39730000
H       -0.74480000      -0.65070000       0.48770000
H       -0.31920000      -0.11810000      -2.19930000
