23
Properties=species:S:1:pos:R:3 gdb_41490=T pbc="F F F"
C        0.09190000       1.44740000      -0.35520000
C        1.43750000       1.95580000       0.22390000
C        2.12410000       0.68910000       0.68010000
C        1.29370000      -0.36010000       0.67550000
C       -0.09980000       0.02580000       0.23430000
C        1.68610000      -1.74460000       1.10370000
C        3.21550000      -1.88410000       1.20460000
C        3.84220000      -0.67080000       1.90600000
C        3.55280000       0.63200000       1.13930000
H       -0.74440000       2.11550000      -0.13320000
H        0.16730000       1.38050000      -1.44500000
H        2.02520000       2.51730000      -0.51350000
H        1.28840000       2.64010000       1.07280000
H       -0.79170000       0.02570000       1.09020000
H       -0.52460000      -0.67540000      -0.49500000
H        1.21960000      -1.98070000       2.07300000
H        1.28350000      -2.48750000       0.40170000
H        3.47650000      -2.80810000       1.73170000
H        3.63490000      -1.96930000       0.19360000
H        3.42650000      -0.58990000       2.91890000
H        4.92270000      -0.81040000       2.02060000
H        4.22570000       0.72010000       0.27220000
H        3.78170000       1.50130000       1.77070000
