15
Properties=species:S:1:pos:R:3 gdb_129874=T pbc="F F F"
N        0.07520000       1.44950000       0.11080000
C       -0.01420000       0.05520000       0.01950000
C       -1.08320000      -0.79170000       0.02830000
N       -0.57530000      -2.08060000      -0.01920000
C       -1.33160000      -3.24370000      -0.02610000
O       -0.89890000      -4.36230000      -0.08450000
N        0.79300000      -2.08940000      -0.05520000
C        1.12910000      -0.81740000      -0.02860000
N        2.44030000      -0.37760000      -0.10960000
H        0.71650000       1.83300000      -0.57520000
H       -0.81950000       1.91380000       0.02440000
H       -2.14540000      -0.60900000       0.05670000
H       -2.40890000      -2.99400000       0.03090000
H        3.10690000      -1.13070000       0.00300000
H        2.64140000       0.39060000       0.51860000
