20
Properties=species:S:1:pos:R:3 gdb_55090=T pbc="F F F"
C       -0.11420000       1.57130000       0.31300000
C        0.01430000       0.10780000       0.00710000
C       -0.76130000      -0.96370000       0.72320000
C        0.74440000      -1.00060000       0.76900000
C        1.29290000      -1.58580000      -0.54790000
C        0.54140000      -0.45710000      -1.32140000
C        2.80900000      -1.46760000      -0.64340000
N        3.48310000      -2.63040000      -0.39820000
O        3.38590000      -0.42510000      -0.89010000
H        0.80480000       2.10820000       0.05410000
H       -0.93790000       2.02430000      -0.25260000
H       -0.31490000       1.73850000       1.37670000
H       -1.23860000      -0.65160000       1.64750000
H       -1.31510000      -1.72230000       0.17250000
H        1.29580000      -0.94680000       1.70100000
H        0.97340000      -2.61390000      -0.75620000
H       -0.21110000      -0.77900000      -2.04870000
H        1.26390000       0.20720000      -1.79850000
H        3.01200000      -3.47240000      -0.11880000
H        4.48790000      -2.59560000      -0.34170000
