17
Properties=species:S:1:pos:R:3 gdb_39855=T pbc="F F F"
C       -0.02790000       1.45440000      -0.01390000
C        1.27960000       0.68950000       0.00650000
C       -0.02510000      -0.04070000      -0.00410000
C       -0.51740000      -0.95830000       1.10420000
O        0.26580000      -2.16700000       0.84940000
C       -0.54580000      -2.31470000      -0.31350000
C       -1.75230000      -1.60910000       0.30390000
O       -2.02090000      -0.82860000      -0.85870000
C       -0.58340000      -0.91890000      -1.11300000
H       -0.33090000       1.97020000       0.89170000
H       -0.31960000       1.95930000      -0.92870000
H        1.87790000       0.67870000      -0.89900000
H        1.86230000       0.68210000       0.92150000
H       -0.52630000      -0.63820000       2.14430000
H       -0.49550000      -3.27280000      -0.82710000
H       -2.61230000      -2.03500000       0.81700000
H       -0.29970000      -0.76930000      -2.15300000
