15
Properties=species:S:1:pos:R:3 gdb_131218=T pbc="F F F"
O        0.41270000       1.30090000       0.03580000
C        0.16140000      -0.01980000      -0.06680000
C        0.30310000      -0.94990000      -1.07560000
C       -0.16730000      -2.15700000      -0.49520000
C       -0.21060000      -3.51630000      -1.12660000
C        1.18460000      -4.11060000      -1.24520000
O        1.67120000      -4.52060000      -2.26630000
N       -0.55750000      -1.98800000       0.76350000
N       -0.34610000      -0.66690000       1.00420000
H        0.77360000       1.61460000      -0.79920000
H        0.67970000      -0.78850000      -2.07260000
H       -0.80130000      -4.17370000      -0.47710000
H       -0.66370000      -3.49740000      -2.12160000
H        1.74530000      -4.13300000      -0.28340000
H       -0.58140000      -0.26980000       1.89780000
