10
Properties=species:S:1:pos:R:3 gdb_2622=T pbc="F F F"
O       -0.44650000       0.60870000       0.86340000
C        0.01920000       1.03750000      -0.15320000
C        1.33320000       1.83870000      -0.19070000
C        1.33360000       2.87550000      -1.20280000
C        1.28820000       3.73010000      -2.05510000
C        1.24920000       4.69810000      -3.01720000
N        1.21570000       5.52040000      -3.83690000
H       -0.44940000       0.86780000      -1.14480000
H        1.51780000       2.24470000       0.80910000
H        2.13790000       1.11750000      -0.39970000
