18
Properties=species:S:1:pos:R:3 gdb_110490=T pbc="F F F"
C       -0.22580000       1.28250000      -0.02070000
O        0.22690000      -0.04220000       0.15710000
C        0.71300000      -0.62560000      -1.01290000
C        1.29230000      -2.00990000      -0.89630000
C        0.27500000      -3.11640000      -1.01020000
C       -1.16480000      -2.82750000      -0.76750000
C       -1.49990000      -1.74960000      -1.47690000
C       -0.25320000      -1.21800000      -2.12470000
N        0.70600000      -2.41050000      -2.23690000
H        0.56600000       1.93110000      -0.42680000
H       -1.09310000       1.33390000      -0.69600000
H       -0.52310000       1.65920000       0.96050000
H        1.44200000       0.03330000      -1.50650000
H        2.32270000      -2.22610000      -0.63200000
H        0.66470000      -4.12400000      -0.89950000
H       -1.79200000      -3.40690000      -0.10360000
H       -2.45340000      -1.23790000      -1.48070000
H       -0.36270000      -0.64870000      -3.04640000
