19
Properties=species:S:1:pos:R:3 gdb_48878=T pbc="F F F"
O       -0.07550000      -0.02130000       0.03740000
C        0.02830000       1.17770000      -0.04410000
C        1.32140000       1.92920000      -0.05380000
C        1.36460000       3.19480000       0.88530000
C        1.91800000       4.00840000      -0.28000000
C        3.00870000       3.23710000      -1.00700000
C        3.73340000       2.10310000      -0.28110000
C        2.60290000       1.10030000       0.07760000
C        1.56690000       2.90310000      -1.25990000
H       -0.87760000       1.82420000      -0.12400000
H        0.35710000       3.52320000       1.15830000
H        1.96530000       3.09510000       1.79620000
H        1.81550000       5.08000000      -0.40510000
H        3.53430000       3.80440000      -1.76770000
H        4.48730000       1.64340000      -0.92680000
H        4.25760000       2.46490000       0.61000000
H        2.71150000       0.67070000       1.07750000
H        2.57210000       0.26750000      -0.63150000
H        1.05340000       2.92110000      -2.21190000
