18
Properties=species:S:1:pos:R:3 gdb_102230=T pbc="F F F"
C       -0.05570000       1.41600000      -0.18210000
C        0.02290000      -0.07170000       0.04430000
N        0.19160000      -0.70160000       1.13180000
O       -0.11490000      -0.72000000      -1.13900000
C       -0.01890000      -2.17070000      -1.12460000
C       -1.44200000      -2.73500000      -0.99780000
O       -2.28340000      -2.31220000      -2.04700000
C        0.65450000      -2.57790000      -2.35060000
C        1.21400000      -2.95530000      -3.34380000
H        0.04910000       1.96020000       0.75750000
H        0.73160000       1.73140000      -0.87310000
H       -1.01320000       1.67820000      -0.64240000
H        0.29300000      -0.05830000       1.91240000
H        0.56090000      -2.46520000      -0.24490000
H       -1.39950000      -3.82740000      -1.03840000
H       -1.82750000      -2.44010000      -0.01110000
H       -2.19300000      -1.35440000      -2.10660000
H        1.70600000      -3.28540000      -4.22520000
