15
Properties=species:S:1:pos:R:3 gdb_94499=T pbc="F F F"
O        0.18730000       1.41110000      -0.11890000
C        0.08900000       0.02620000       0.00660000
C        0.19310000      -0.54340000       1.44560000
N       -1.28690000      -0.59470000       1.50350000
C       -1.37880000      -0.56720000       0.02280000
C       -2.45100000       0.23470000      -0.52950000
C       -3.33010000       0.92030000      -0.99700000
C       -4.32740000       1.69060000      -1.52120000
N       -5.17750000       2.34560000      -1.96630000
H       -0.40150000       1.82020000       0.52680000
H        0.75000000      -0.40390000      -0.74580000
H        0.69230000      -1.52190000       1.46950000
H        0.65460000       0.11380000       2.18920000
H       -1.70030000      -1.40510000       1.95130000
H       -1.38530000      -1.56110000      -0.45000000
