21
Properties=species:S:1:pos:R:3 gdb_92215=T pbc="F F F"
C       -0.24240000       1.56720000      -0.02180000
C        0.00200000       0.05530000      -0.02050000
C        0.86110000      -0.45440000      -1.22650000
C        2.15500000      -0.89730000      -0.54330000
O        2.72590000       0.29990000       0.05780000
C        2.22670000       0.17580000       1.40050000
C        2.73080000      -1.22490000       1.81390000
C        1.70600000      -1.65100000       0.73480000
C        0.80750000      -0.45130000       1.18810000
H        0.70580000       2.11080000      -0.05960000
H       -0.83710000       1.86800000      -0.89090000
H       -0.78560000       1.88370000       0.87590000
H       -0.96980000      -0.45210000      -0.02360000
H        0.37970000      -1.29410000      -1.74130000
H        1.05590000       0.32720000      -1.96610000
H        2.89880000      -1.38190000      -1.17950000
H        2.42410000       1.09050000       1.95830000
H        3.79140000      -1.43160000       1.65270000
H        2.42080000      -1.52330000       2.81780000
H        1.33440000      -2.66850000       0.61470000
H        0.25060000      -0.59910000       2.11430000
