18
Properties=species:S:1:pos:R:3 gdb_44371=T pbc="F F F"
O        0.00330000      -0.11470000      -0.17500000
C       -0.03820000       1.09520000      -0.05650000
C       -1.35000000       1.87620000       0.01520000
C       -1.20450000       3.22220000       0.72300000
C       -0.45180000       3.21210000       2.10240000
C        0.70240000       3.98640000       1.46460000
C        1.16750000       3.27640000       0.20930000
N        1.10180000       1.85320000       0.02740000
C       -0.07590000       4.09290000       0.14270000
H       -1.71300000       2.02200000      -1.01040000
H       -2.07270000       1.22320000       0.51290000
H       -2.16380000       3.73930000       0.78480000
H       -0.98130000       3.79820000       2.85580000
H       -0.20920000       2.23160000       2.52580000
H        1.31990000       4.73040000       1.95420000
H        2.03930000       3.71940000      -0.26230000
H        1.95500000       1.31600000       0.08370000
H       -0.19640000       4.92550000      -0.54000000
