20
Properties=species:S:1:pos:R:3 gdb_70144=T pbc="F F F"
C       -0.24290000       1.50520000       0.08650000
C       -0.02510000       0.00760000      -0.01070000
N       -0.68190000      -0.84980000       0.99260000
C        0.77800000      -0.65410000       1.09940000
C        1.68070000      -1.80710000       0.88190000
C        1.47580000      -2.83110000       0.04960000
C        0.27280000      -2.98890000      -0.86060000
C        0.15370000      -1.79180000      -1.78390000
C        0.04090000      -0.51710000      -1.40230000
H        0.53300000       2.05450000      -0.45750000
H       -1.21130000       1.78470000      -0.34550000
H       -0.22590000       1.84330000       1.12760000
H       -1.15470000      -0.26940000       1.68080000
H        1.11590000       0.03430000       1.87140000
H        2.60960000      -1.77360000       1.44620000
H        2.24650000      -3.59440000      -0.02150000
H        0.38550000      -3.89720000      -1.45830000
H       -0.63910000      -3.10250000      -0.26750000
H        0.21090000      -1.99490000      -2.85050000
H        0.01840000       0.24780000      -2.17570000
