22
Properties=species:S:1:pos:R:3 gdb_115849=T pbc="F F F"
C        0.47390000       1.17130000      -1.07550000
C        0.47600000      -0.31890000      -0.72880000
C        1.38520000      -0.64800000       0.46100000
O        1.00850000       0.07920000       1.64130000
C        0.23420000      -0.75110000       2.50430000
C        0.57460000      -2.18380000       2.14360000
C        1.31320000      -2.11740000       0.84610000
N        1.97100000      -2.58060000       2.05840000
C        3.03740000      -1.82480000       2.70800000
H        1.47260000       1.50840000      -1.37530000
H       -0.21240000       1.38510000      -1.90020000
H        0.16900000       1.76450000      -0.20950000
H       -0.54370000      -0.65450000      -0.49980000
H        0.81060000      -0.90880000      -1.59200000
H        2.41060000      -0.32700000       0.22900000
H        0.48920000      -0.47810000       3.53520000
H       -0.84580000      -0.58370000       2.36820000
H       -0.13960000      -2.96470000       2.39210000
H        1.19630000      -2.84990000       0.05130000
H        2.90850000      -0.73550000       2.70000000
H        3.11250000      -2.16160000       3.74690000
H        3.98290000      -2.06970000       2.21370000
