19
Properties=species:S:1:pos:R:3 gdb_14129=T pbc="F F F"
C        0.06150000       1.45850000      -0.21120000
C        0.02040000      -0.02840000       0.14550000
O        0.71160000      -0.29710000       1.36440000
C       -1.39110000      -0.55740000       0.19180000
C       -2.42110000      -0.32420000       1.31540000
C       -2.99170000      -1.75680000       1.04300000
C       -1.94690000      -1.92990000      -0.06720000
N       -2.05670000      -0.87050000      -1.06820000
H        1.09510000       1.81380000      -0.24220000
H       -0.40210000       1.63250000      -1.18640000
H       -0.48430000       2.05410000       0.53230000
H        0.55710000      -0.59570000      -0.62290000
H        0.42320000       0.35290000       2.01380000
H       -1.96640000      -0.25440000       2.30660000
H       -3.09870000       0.52540000       1.17710000
H       -2.83930000      -2.42890000       1.89030000
H       -4.03740000      -1.82640000       0.72420000
H       -1.44450000      -2.84750000      -0.35230000
H       -2.99760000      -0.48440000      -1.13180000
