15
Properties=species:S:1:pos:R:3 gdb_25805=T pbc="F F F"
C       -0.00890000       1.46970000       0.05470000
C       -0.04140000      -0.04540000       0.02980000
O       -0.07840000      -0.72950000       1.03270000
C       -0.02480000      -0.65330000      -1.30850000
N        0.02790000      -0.07370000      -2.47160000
C        0.02780000      -1.09010000      -3.39580000
C       -0.02910000      -2.28580000      -2.72130000
N       -0.12370000      -3.60020000      -3.09820000
O       -0.06230000      -2.02870000      -1.40130000
H        0.88310000       1.84330000      -0.45700000
H       -0.87110000       1.88000000      -0.47960000
H       -0.01600000       1.80400000       1.09240000
H        0.06590000      -0.91290000      -4.45810000
H        0.22200000      -3.80240000      -4.02400000
H        0.19700000      -4.26000000      -2.40380000
