15
Properties=species:S:1:pos:R:3 gdb_4483=T pbc="F F F"
C        0.01740000       1.59410000       0.02710000
C        0.03240000       0.09790000       0.05110000
C        0.00990000      -0.74400000      -1.01480000
O       -0.03060000      -0.48040000      -2.33620000
O        0.03280000      -2.04560000      -0.65140000
C        0.07320000      -2.06150000       0.74990000
N        0.10400000      -3.28840000       1.40660000
C        0.07360000      -0.78270000       1.19440000
H        0.91000000       2.01800000       0.50250000
H       -0.01740000       1.96290000      -1.00130000
H       -0.85250000       2.00110000       0.55620000
H       -0.03630000      -1.32090000      -2.80790000
H        0.92450000      -3.83930000       1.17300000
H       -0.71700000      -3.85570000       1.21920000
H        0.10050000      -0.49140000       2.23330000
