21
Properties=species:S:1:pos:R:3 gdb_113147=T pbc="F F F"
C        0.20790000       1.43450000       0.30500000
C       -0.22300000       0.02720000      -0.12450000
C        0.55850000      -0.47340000      -1.32180000
C        1.91980000      -1.10870000      -1.15470000
C        0.72650000      -1.95500000      -1.58040000
O        0.14920000      -2.79000000      -0.60640000
C        0.66760000      -2.45840000      -2.92940000
C        0.62520000      -2.91240000      -4.04540000
C        0.56170000      -3.44990000      -5.39660000
H        1.26740000       1.45560000       0.58160000
H        0.06370000       2.15950000      -0.50380000
H       -0.37240000       1.77790000       1.16700000
H       -0.10150000      -0.67550000       0.70460000
H       -1.29260000       0.02800000      -0.36920000
H        0.43290000       0.12100000      -2.22300000
H        2.69710000      -0.90590000      -1.88230000
H        2.26410000      -1.27790000      -0.13910000
H        0.62850000      -3.62570000      -0.62470000
H       -0.38170000      -3.98000000      -5.56880000
H        0.62940000      -2.64940000      -6.14170000
H        1.37920000      -4.15310000      -5.59200000
