20
Properties=species:S:1:pos:R:3 gdb_77726=T pbc="F F F"
C       -0.16760000       1.37970000      -0.04520000
N        0.15580000      -0.02930000       0.09040000
C        1.48180000      -0.55470000      -0.14480000
C        2.63040000       0.35720000       0.35460000
C        1.98900000       0.34680000       1.77590000
C        0.85960000      -0.56490000       1.23390000
C        0.53970000      -2.00700000       1.54390000
O        0.63970000      -2.69520000       0.28920000
C        1.51050000      -1.99120000      -0.60730000
H        0.60590000       2.07670000       0.30920000
H       -0.35810000       1.59380000      -1.10120000
H       -1.08680000       1.58190000       0.51290000
H        3.59650000      -0.15070000       0.32730000
H        2.73360000       1.32270000      -0.14850000
H        2.61050000      -0.16680000       2.51210000
H        1.67470000       1.30540000       2.19790000
H        1.26470000      -2.39700000       2.27680000
H       -0.47130000      -2.19060000       1.91990000
H        1.12460000      -2.16460000      -1.61640000
H        2.54190000      -2.37620000      -0.55340000
