19
Properties=species:S:1:pos:R:3 gdb_51089=T pbc="F F F"
O       -0.48790000       0.74660000       0.84170000
C        0.06510000       1.03630000      -0.18850000
C        1.40490000       1.74490000      -0.26550000
C        1.37830000       2.93290000      -1.19930000
C        0.47020000       4.18350000      -1.03280000
C        1.42900000       4.72080000      -2.14010000
C        2.55620000       3.92060000      -1.41340000
C        1.09750000       3.74740000      -3.27640000
O        1.08030000       2.49880000      -2.54530000
H       -0.38120000       0.79250000      -1.17560000
H        1.70460000       2.04320000       0.74220000
H        2.14040000       1.02420000      -0.65050000
H       -0.59010000       4.06850000      -1.27220000
H        0.60270000       4.68710000      -0.07410000
H        1.51870000       5.77800000      -2.38410000
H        2.89080000       4.40170000      -0.49300000
H        3.40400000       3.56030000      -2.00160000
H        0.11910000       3.92720000      -3.73670000
H        1.86170000       3.71060000      -4.06120000
