14
Properties=species:S:1:pos:R:3 gdb_35835=T pbc="F F F"
C       -0.05120000      -1.16500000       0.34240000
C       -0.02450000       0.01480000       0.11970000
C        0.01620000       1.45170000      -0.16350000
O       -0.75090000       2.21030000       0.77210000
C        0.10180000       2.99220000       1.60270000
C        1.45960000       2.89470000       0.97870000
C        1.42740000       2.02900000      -0.03540000
C        2.49590000       1.64410000      -0.88270000
N        3.34850000       1.32030000      -1.59650000
H       -0.07580000      -2.20920000       0.53730000
H       -0.39570000       1.63010000      -1.16630000
H       -0.27650000       4.02310000       1.63240000
H        0.10530000       2.61220000       2.63700000
H        2.32640000       3.44120000       1.32530000
