15
Properties=species:S:1:pos:R:3 gdb_66513=T pbc="F F F"
O       -0.11740000       1.31950000      -0.08220000
C        0.05270000      -0.02820000      -0.00640000
C       -1.02000000      -1.06400000       0.06940000
C       -0.36590000      -1.03860000      -1.26370000
C        0.64580000      -2.03630000      -0.82860000
N        1.91420000      -2.00300000      -0.95910000
C        2.33420000      -1.50800000       0.38860000
C        0.99910000      -0.89130000       0.90560000
N        0.05650000      -2.01330000       0.54330000
H        0.64520000       1.71030000      -0.52630000
H       -2.04350000      -1.06610000       0.41630000
H       -0.65170000      -0.60620000      -2.21320000
H        2.66140000      -2.28620000       1.09330000
H        3.16140000      -0.80460000       0.25240000
H        0.97940000      -0.57430000       1.95230000
