18
Properties=species:S:1:pos:R:3 gdb_85613=T pbc="F F F"
C       -0.75740000       1.26290000      -0.16770000
C        0.10760000       0.02400000       0.07910000
O        0.90110000      -0.31370000      -1.08060000
C        1.65970000       0.65620000      -1.63970000
N        1.44500000       1.04310000      -2.82130000
O        2.65610000       1.15090000      -0.85760000
C        3.16010000       0.32890000       0.20850000
C        2.24660000       0.23140000       1.40110000
C        0.92420000       0.11760000       1.33870000
H       -0.13980000       2.16080000      -0.25530000
H       -1.33550000       1.14150000      -1.08680000
H       -1.44720000       1.40490000       0.66960000
H       -0.55290000      -0.84610000       0.17250000
H        2.18140000       1.68910000      -3.10420000
H        3.40750000      -0.66590000      -0.18360000
H        4.09640000       0.81320000       0.49610000
H        2.73470000       0.25970000       2.37160000
H        0.34360000       0.07980000       2.25790000
