18
Properties=species:S:1:pos:R:3 gdb_78944=T pbc="F F F"
C        0.01540000       1.53680000      -0.12240000
N       -0.00710000       0.09130000       0.00940000
C       -1.22890000      -0.56390000       0.53170000
C       -1.46690000      -0.12460000       2.01090000
C       -0.81630000      -1.37020000       2.59290000
C       -0.34770000      -1.70420000       1.14600000
C        0.69290000      -0.53160000       1.15250000
C       -0.00780000      -0.11030000       2.49230000
O        0.46980000       0.65180000       3.53470000
H        1.03130000       1.86670000      -0.36390000
H       -0.64120000       1.84170000      -0.94420000
H       -0.31270000       2.07200000       0.78740000
H       -2.07180000      -0.68830000      -0.14910000
H       -2.22500000       0.50560000       2.45750000
H       -1.09330000      -1.98090000       3.44000000
H       -0.17510000      -2.67810000       0.69810000
H        1.77860000      -0.62700000       1.11410000
H        0.38930000       1.58250000       3.29780000
