20
Properties=species:S:1:pos:R:3 gdb_19151=T pbc="F F F"
C        0.08840000       1.59940000       0.12040000
C       -0.03040000       0.10470000      -0.19260000
C       -1.41450000      -0.52040000      -0.04640000
C       -2.49640000       0.17750000       0.70580000
N       -2.55740000       0.08110000      -0.76390000
C       -1.48470000      -2.02770000      -0.06160000
C       -0.38060000      -2.89920000      -0.53580000
N       -0.73030000      -2.85350000       0.89680000
H        1.09300000       1.95520000      -0.12550000
H       -0.61650000       2.20300000      -0.46240000
H       -0.08680000       1.80770000       1.17960000
H        0.31020000      -0.07540000      -1.22050000
H        0.67390000      -0.43670000       0.45280000
H       -3.24480000      -0.40900000       1.23220000
H       -2.28550000       1.14250000       1.15520000
H       -2.28230000       0.96890000      -1.17810000
H       -2.50240000      -2.37780000      -0.21670000
H       -0.61040000      -3.83790000      -1.03220000
H        0.54690000      -2.43760000      -0.86070000
H       -0.05520000      -2.27900000       1.39730000
