19
Properties=species:S:1:pos:R:3 gdb_70686=T pbc="F F F"
C        0.11660000       1.53080000       0.00230000
C        0.08430000       0.01590000       0.01170000
C       -0.86310000      -0.68170000       0.97880000
C        0.62070000      -0.76860000       1.19600000
C        1.33950000      -2.08220000       0.90740000
C        1.86800000      -2.08020000      -0.51920000
O        0.83710000      -1.78090000      -1.47690000
C        0.15770000      -0.60820000      -1.35470000
O       -0.39050000      -0.14260000      -2.31770000
H        1.08350000       1.90740000      -0.34840000
H       -0.65640000       1.92010000      -0.66450000
H       -0.05460000       1.92570000       1.00820000
H       -1.45470000      -0.04070000       1.62340000
H       -1.37620000      -1.57620000       0.64040000
H        1.02730000      -0.16790000       2.00360000
H        2.17870000      -2.22230000       1.59650000
H        0.66640000      -2.93510000       1.04740000
H        2.67700000      -1.34660000      -0.63010000
H        2.25420000      -3.05790000      -0.81670000
