15
Properties=species:S:1:pos:R:3 gdb_44242=T pbc="F F F"
N        0.10610000       0.83700000       0.84270000
C        0.03020000      -0.18890000       0.11470000
N        0.91210000      -0.96830000      -0.64620000
C       -0.06080000      -2.05420000      -0.86980000
C       -1.14400000      -1.13130000      -0.24010000
O       -1.75990000      -1.80870000       0.83310000
C       -0.85600000      -2.77690000       1.34190000
C        0.06450000      -3.16860000       0.17750000
O        0.77120000      -4.13890000       0.11850000
H        1.06390000       1.18460000       0.92420000
H        1.90400000      -1.09230000      -0.48770000
H       -0.13790000      -2.41480000      -1.89620000
H       -1.91720000      -0.70880000      -0.88040000
H       -0.24970000      -2.37800000       2.17050000
H       -1.41950000      -3.63700000       1.71150000
