20
Properties=species:S:1:pos:R:3 gdb_81226=T pbc="F F F"
C        0.01110000       1.47970000      -0.31150000
N       -0.01970000       0.06760000       0.04590000
C       -1.12270000      -0.49400000       0.86250000
C       -0.15060000      -1.72470000       1.07830000
C        0.83510000      -0.53810000       1.10160000
C        2.21100000       0.09550000       1.32580000
O        1.57390000       1.09880000       2.18540000
C        0.46130000       0.17100000       2.40850000
C       -1.05350000       0.36550000       2.18210000
H        0.93190000       1.68250000      -0.86680000
H       -0.82720000       1.67360000      -0.98950000
H       -0.03490000       2.18850000       0.52420000
H       -2.09600000      -0.62140000       0.38430000
H       -0.24720000      -2.31410000       1.99240000
H       -0.11500000      -2.34720000       0.18540000
H        2.91820000      -0.52160000       1.89380000
H        2.71070000       0.54710000       0.46400000
H        0.66750000      -0.39320000       3.32630000
H       -1.37910000       1.39240000       2.00300000
H       -1.64220000      -0.03570000       3.01120000
