14
Properties=species:S:1:pos:R:3 gdb_34130=T pbc="F F F"
N        0.00980000      -1.10940000       0.08110000
C       -0.01430000       0.04610000       0.05570000
C       -0.00150000       1.48410000      -0.00990000
C       -0.85090000       2.25320000      -1.04550000
C       -0.07250000       3.55710000      -0.80000000
O        1.26010000       3.19130000      -1.27540000
C        1.34650000       2.39150000      -0.11490000
C        0.40220000       3.27120000       0.70280000
O       -0.34950000       2.17580000       1.22480000
H       -0.73620000       1.91270000      -2.07500000
H       -1.89840000       2.26690000      -0.74200000
H       -0.43700000       4.50850000      -1.17830000
H        2.31800000       1.97630000       0.14160000
H        0.64340000       4.06870000       1.40030000
