16
Properties=species:S:1:pos:R:3 gdb_34535=T pbc="F F F"
C        0.03870000      -1.13780000      -0.12130000
C       -0.03340000       0.05540000       0.00390000
C       -0.10710000       1.47560000       0.17180000
N       -1.07780000       2.14650000      -0.30450000
C       -1.12040000       3.54850000      -0.04140000
C       -1.10750000       4.03340000       1.40160000
C        0.10000000       4.22920000       0.53070000
C        1.30250000       3.32950000       0.68680000
O        0.94360000       1.95340000       0.90330000
H        0.09340000      -2.19190000      -0.24020000
H       -1.75100000       4.09110000      -0.73630000
H       -1.71130000       4.90030000       1.64530000
H       -1.07040000       3.27240000       2.17340000
H        0.33350000       5.23480000       0.19350000
H        1.92730000       3.38690000      -0.21490000
H        1.91910000       3.59890000       1.54890000
