21
Properties=species:S:1:pos:R:3 gdb_39202=T pbc="F F F"
C       -0.10310000       1.37130000      -0.07320000
C        1.33200000       0.90580000       0.03070000
C        1.95250000       0.83570000       1.42970000
C        1.48350000      -0.51990000       2.01610000
C        0.14100000      -0.84820000       1.30210000
C       -0.03960000      -2.28050000       0.86400000
C       -0.13410000      -2.40730000      -0.45980000
C       -0.07100000      -1.08050000      -1.18250000
C        0.20320000      -0.09760000      -0.04540000
H       -0.56370000       1.82800000       0.79980000
H       -0.42560000       1.79910000      -1.01840000
H        1.98110000       1.07150000      -0.82340000
H        3.04380000       0.89990000       1.39150000
H        1.61090000       1.67280000       2.05060000
H        2.21460000      -1.29480000       1.75970000
H        1.39590000      -0.50550000       3.10710000
H       -0.70170000      -0.51640000       1.92540000
H       -0.07510000      -3.10270000       1.57130000
H       -0.25760000      -3.34710000      -0.98790000
H        0.70910000      -1.06440000      -1.95560000
H       -1.01760000      -0.86550000      -1.69870000
