20
Properties=species:S:1:pos:R:3 gdb_122906=T pbc="F F F"
C       -0.23310000       1.40860000      -0.59880000
C       -0.42290000      -0.10700000      -0.69570000
C       -1.39580000      -0.63550000       0.34800000
O       -1.51780000      -2.03850000       0.18570000
C       -2.40000000      -2.63860000       1.09170000
C       -2.50890000      -4.12700000       0.72690000
O       -3.25640000      -4.84940000       1.68400000
C       -3.06070000      -4.29680000      -0.63230000
N       -3.54740000      -4.43740000      -1.67060000
H        0.46950000       1.76330000      -1.35780000
H       -1.17900000       1.94070000      -0.74840000
H        0.16100000       1.70150000       0.38060000
H       -0.79620000      -0.38290000      -1.68810000
H        0.53700000      -0.62020000      -0.56800000
H       -1.03720000      -0.40260000       1.36510000
H       -2.38300000      -0.15690000       0.23420000
H       -2.03810000      -2.57420000       2.12990000
H       -3.40020000      -2.17360000       1.05280000
H       -1.50110000      -4.55420000       0.74000000
H       -4.18160000      -4.58840000       1.60960000
