18
Properties=species:S:1:pos:R:3 gdb_85465=T pbc="F F F"
C       -0.19990000       1.54770000      -0.08080000
C        0.03760000       0.04350000      -0.02410000
C        0.89010000      -0.54400000      -1.15930000
C        1.51080000      -1.80960000      -0.56480000
O        2.08460000      -2.70040000      -1.14650000
N        1.29690000      -1.75020000       0.79590000
C        0.76870000      -0.47250000       1.26250000
C        1.82050000       0.41930000       1.76280000
C        2.69120000       1.13200000       2.18660000
H        0.74530000       2.09770000      -0.07380000
H       -0.74350000       1.81200000      -0.99310000
H       -0.79380000       1.89010000       0.77310000
H       -0.92990000      -0.47170000      -0.02860000
H        0.32900000      -0.77490000      -2.06640000
H        1.70830000       0.13150000      -1.43820000
H        1.82150000      -2.36090000       1.40420000
H        0.03840000      -0.63230000       2.06440000
H        3.46280000       1.75970000       2.55970000
