17
Properties=species:S:1:pos:R:3 gdb_37288=T pbc="F F F"
C        0.00030000       1.49440000      -0.02020000
O        1.41560000       1.77190000      -0.03600000
C        1.98050000       0.46950000       0.00910000
C        1.16560000      -0.40260000      -0.99680000
C        1.51040000      -1.84380000      -0.63660000
O        2.74130000      -2.00330000       0.09600000
C        1.51640000      -1.79060000       0.82500000
C        1.17410000      -0.32700000       1.08230000
C        0.02370000      -0.02640000       0.03510000
H       -0.46590000       1.95900000       0.85700000
H       -0.47310000       1.89410000      -0.92510000
H        3.06440000       0.52350000       0.00270000
H        1.09370000      -0.11300000      -2.04510000
H        1.19600000      -2.69210000      -1.23480000
H        1.20700000      -2.59310000       1.48590000
H        1.11050000       0.03810000       2.10730000
H       -0.92650000      -0.56150000       0.05840000
