21
Properties=species:S:1:pos:R:3 gdb_112717=T pbc="F F F"
C       -0.68430000       0.88250000      -0.25330000
O       -0.29930000      -0.47770000      -0.37610000
C        0.89370000      -0.66550000      -1.12480000
C        1.15180000      -2.16820000      -1.19400000
C        0.22540000      -2.56510000      -2.35650000
O       -1.11430000      -2.73470000      -1.93640000
C        0.43420000      -1.36870000      -3.31510000
C       -0.73740000      -1.03060000      -4.21850000
O        0.74390000      -0.24010000      -2.45770000
H        0.09430000       1.46360000       0.26220000
H       -0.87140000       1.33440000      -1.23340000
H       -1.59820000       0.90460000       0.34360000
H        1.69500000      -0.06410000      -0.67380000
H        2.19990000      -2.34810000      -1.45040000
H        0.91100000      -2.68470000      -0.26430000
H        0.51940000      -3.50250000      -2.83580000
H       -1.30560000      -2.00690000      -1.32720000
H        1.32850000      -1.56130000      -3.92600000
H       -1.65060000      -0.90170000      -3.63460000
H       -0.53220000      -0.11120000      -4.77340000
H       -0.90500000      -1.83890000      -4.93740000
