23
Properties=species:S:1:pos:R:3 gdb_119906=T pbc="F F F"
C        0.03690000       1.52140000      -0.14430000
C        0.20220000       0.00220000      -0.05880000
C        0.54800000      -0.48270000       1.35650000
C        0.67780000      -1.99010000       1.43210000
C        1.98740000      -2.69020000       1.13760000
O        3.07770000      -1.86300000       0.83910000
C        1.39970000      -2.71870000       2.53870000
C        2.08170000      -1.99560000       3.67570000
O        0.74580000      -3.90880000       2.91380000
H        0.95680000       2.03670000       0.15420000
H       -0.20700000       1.84090000      -1.16240000
H       -0.76530000       1.87160000       0.51540000
H       -0.72130000      -0.48790000      -0.39480000
H        0.99180000      -0.32530000      -0.74560000
H        1.48080000      -0.00640000       1.67270000
H       -0.22980000      -0.14970000       2.05720000
H       -0.19500000      -2.53310000       1.07720000
H        1.93800000      -3.62110000       0.57190000
H        3.87620000      -2.28170000       1.17680000
H        2.63550000      -1.12380000       3.32270000
H        1.35220000      -1.67170000       4.42450000
H        2.79640000      -2.66290000       4.17610000
H        1.41400000      -4.52360000       3.23850000
