20
Properties=species:S:1:pos:R:3 gdb_62469=T pbc="F F F"
C       -0.15390000       1.48560000       0.03300000
C       -0.07170000      -0.04030000       0.00120000
C       -1.39900000      -0.68420000      -0.39820000
C        1.12930000      -0.57630000      -0.76940000
N        1.48550000      -0.54200000      -1.97090000
O        1.73510000      -1.14290000       0.33500000
C        0.65490000      -0.69340000       1.19060000
C        0.92420000      -0.23050000       2.57700000
C        0.17570000      -1.53550000       2.31760000
H        0.79890000       1.93160000       0.33110000
H       -0.41240000       1.86780000      -0.95870000
H       -0.92400000       1.81750000       0.73800000
H       -1.68790000      -0.35650000      -1.40100000
H       -1.32840000      -1.77530000      -0.40470000
H       -2.19450000      -0.39570000       0.29760000
H        2.37490000      -1.02390000      -2.11310000
H        1.94500000      -0.30350000       2.93600000
H        0.36800000       0.62040000       2.95660000
H       -0.88960000      -1.57220000       2.52070000
H        0.70700000      -2.46190000       2.50700000
