17
Properties=species:S:1:pos:R:3 gdb_24685=T pbc="F F F"
C        0.01980000       1.39040000      -0.09970000
C        1.50210000       1.82200000       0.01660000
C        2.11810000       0.59600000       0.65060000
C        3.37760000       0.35010000       1.17250000
C        3.67470000      -0.92860000       1.65580000
C        2.71590000      -1.93920000       1.60380000
C        1.44260000      -1.70460000       1.07910000
C        1.17000000      -0.42740000       0.61190000
O       -0.01820000      -0.04540000       0.06650000
H       -0.59080000       1.83970000       0.69290000
H       -0.43310000       1.62540000      -1.06510000
H        1.94230000       2.02600000      -0.96710000
H        1.61430000       2.72950000       0.61650000
H        4.12550000       1.13630000       1.20680000
H        4.65480000      -1.13370000       2.07190000
H        2.95730000      -2.92760000       1.98110000
H        0.68890000      -2.48180000       1.03840000
