17
Properties=species:S:1:pos:R:3 gdb_85798=T pbc="F F F"
C       -0.01980000       1.46150000       0.08890000
N       -0.00660000       0.02180000       0.02790000
C       -1.08540000      -0.96510000       0.02210000
C        0.01680000      -2.08220000       0.00330000
C        0.12020000      -2.96430000       1.25150000
C        0.03910000      -2.86420000      -1.22370000
N        0.05110000      -3.48740000      -2.19750000
C        1.02640000      -0.87090000       0.00260000
O        2.21980000      -0.75550000       0.01710000
H        1.01770000       1.80290000       0.08900000
H       -0.53500000       1.89120000      -0.77790000
H       -0.51160000       1.81840000       1.00150000
H       -1.70080000      -0.96340000       0.92850000
H       -1.72620000      -0.92720000      -0.86390000
H       -0.69600000      -3.69060000       1.28850000
H        1.06880000      -3.50630000       1.24760000
H        0.08250000      -2.34420000       2.15160000
