16
Properties=species:S:1:pos:R:3 gdb_3599=T pbc="F F F"
C        0.27160000       1.49980000      -0.13240000
C        0.04380000       0.03330000       0.13080000
O        1.18950000      -0.83880000       0.15040000
C        0.44630000      -0.66940000       1.36180000
C        1.17550000      -0.01150000       2.49710000
C        2.44290000      -0.60960000       2.98760000
N        2.45360000       0.66590000       2.24930000
H        1.04490000       1.91950000       0.51290000
H        0.56130000       1.65620000      -1.17690000
H       -0.65810000       2.05310000       0.03970000
H       -0.79630000      -0.39820000      -0.41710000
H       -0.14090000      -1.54440000       1.65010000
H        0.52890000       0.49230000       3.21360000
H        2.70790000      -0.53910000       4.03850000
H        2.80920000      -1.49740000       2.47860000
H        2.71790000       0.46510000       1.28540000
