21
Properties=species:S:1:pos:R:3 gdb_122463=T pbc="F F F"
C        0.32100000       1.48220000       0.07540000
C       -0.05480000       0.02130000      -0.10640000
O        0.70290000      -0.50920000      -1.17400000
C        0.41970000      -1.86890000      -1.43230000
C        1.24260000      -2.30810000      -2.61310000
C        2.66040000      -2.75630000      -2.42530000
C        1.59800000      -3.77830000      -2.80550000
C        1.18010000      -4.78090000      -1.86850000
C        0.82820000      -5.63680000      -1.09910000
H        1.38680000       1.57860000       0.30080000
H        0.11210000       2.04790000      -0.83710000
H       -0.25010000       1.92430000       0.89730000
H        0.14090000      -0.54680000       0.81940000
H       -1.13360000      -0.07750000      -0.31840000
H        0.65120000      -2.49220000      -0.55420000
H       -0.65510000      -2.00240000      -1.64490000
H        1.02150000      -1.76880000      -3.52930000
H        3.39790000      -2.49810000      -3.17650000
H        3.04020000      -2.80290000      -1.41100000
H        1.61580000      -4.11510000      -3.83800000
H        0.52130000      -6.39080000      -0.41780000
