16
Properties=species:S:1:pos:R:3 gdb_33672=T pbc="F F F"
N       -0.06750000      -1.14830000       0.03210000
C       -0.04040000       0.00960000       0.00880000
C        0.00280000       1.42600000      -0.00990000
C       -0.73780000       2.50170000       0.82420000
C        0.57670000       3.24040000       1.07070000
C        1.24370000       2.37620000      -0.04780000
C        1.08770000       3.06130000      -1.40160000
O       -0.32980000       3.26600000      -1.53670000
C       -0.96590000       2.37450000      -0.66210000
H       -1.53500000       2.33490000       1.53900000
H        0.57380000       4.32370000       0.91580000
H        0.98670000       3.01120000       2.05600000
H        2.22540000       1.95390000       0.15520000
H        1.57950000       4.03760000      -1.44840000
H        1.45620000       2.43220000      -2.22430000
H       -1.92660000       2.01950000      -1.01460000
