19
Properties=species:S:1:pos:R:3 gdb_58410=T pbc="F F F"
C       -0.17770000       1.60360000       0.11180000
C        0.00690000       0.08840000       0.07860000
O       -1.22710000      -0.58920000       0.30500000
C        0.64990000      -0.43150000      -1.22660000
C        2.14590000      -0.05250000      -1.34370000
C        2.71180000      -0.29600000      -2.73000000
O        3.36390000       0.51290000      -3.33780000
C        0.50650000      -1.94730000      -1.25970000
O        0.07570000      -2.57720000      -2.18920000
H        0.77460000       2.13810000       0.05480000
H       -0.79940000       1.93630000      -0.72820000
H       -0.67570000       1.89030000       1.04160000
H        0.63880000      -0.21810000       0.92220000
H       -1.84700000      -0.32430000      -0.38480000
H        0.09730000      -0.03310000      -2.08720000
H        2.31820000       0.99660000      -1.09220000
H        2.72610000      -0.66100000      -0.63270000
H        2.48320000      -1.29370000      -3.16460000
H        0.87330000      -2.45340000      -0.33680000
