18
Properties=species:S:1:pos:R:3 gdb_796=T pbc="F F F"
C       -0.01370000       1.55580000       0.01550000
C        0.02970000       0.02580000      -0.00540000
C        0.74050000      -0.56060000       1.22880000
C        0.76420000      -2.06630000       1.24380000
C       -0.51920000      -2.83870000       1.40140000
N        1.91150000      -2.61590000       1.11230000
O        1.81740000      -4.02050000       1.11780000
H        0.99600000       1.97980000       0.04360000
H       -0.51690000       1.95110000      -0.87220000
H       -0.55130000       1.92510000       0.89610000
H       -0.99230000      -0.36850000      -0.06690000
H        0.54760000      -0.32050000      -0.90790000
H        1.77220000      -0.19810000       1.26810000
H        0.23210000      -0.20270000       2.13570000
H       -0.77350000      -3.36290000       0.47350000
H       -0.40420000      -3.60850000       2.16990000
H       -1.34980000      -2.18190000       1.66810000
H        2.74070000      -4.28210000       1.04220000
