14
Properties=species:S:1:pos:R:3 gdb_11276=T pbc="F F F"
C        0.04890000       1.52790000       0.03420000
C       -0.00320000       0.00190000      -0.00480000
C        0.77990000      -0.63240000      -1.19040000
O        1.73090000      -1.52780000      -0.55800000
C        1.52830000      -1.36820000       0.77110000
N        0.62820000      -0.58230000       1.19720000
C        2.39300000      -2.14320000       1.61840000
N        3.08890000      -2.76650000       2.29740000
H        1.08560000       1.87850000       0.05820000
H       -0.43870000       1.94990000      -0.85050000
H       -0.46080000       1.90360000       0.92440000
H       -1.05130000      -0.31870000      -0.01330000
H        0.15930000      -1.22520000      -1.86550000
H        1.34590000       0.10300000      -1.76980000
