21
Properties=species:S:1:pos:R:3 gdb_13725=T pbc="F F F"
C       -0.33210000       1.39130000       0.11040000
N        0.01670000      -0.02050000       0.11790000
C        1.38210000      -0.37990000      -0.24640000
C        0.90230000      -0.56140000       1.15400000
C        1.47220000       0.25600000       2.29710000
C        0.50620000       0.37970000       3.48250000
C        1.10430000       1.14490000       4.65530000
O        0.13090000       1.19700000       5.68700000
H        0.48170000       2.07170000       0.40660000
H       -0.64090000       1.66660000      -0.90340000
H       -1.18270000       1.56150000       0.77840000
H        1.49590000      -1.22630000      -0.91950000
H        2.09150000       0.43080000      -0.41750000
H        0.60920000      -1.56790000       1.45520000
H        2.39820000      -0.23260000       2.63090000
H        1.76870000       1.25150000       1.94780000
H       -0.41610000       0.88380000       3.17190000
H        0.21160000      -0.61760000       3.83150000
H        2.02330000       0.64060000       4.99820000
H        1.39440000       2.15790000       4.32930000
H        0.50520000       1.67830000       6.43040000
