25
Properties=species:S:1:pos:R:3 gdb_42140=T pbc="F F F"
C       -0.07950000       1.55300000       0.03020000
C        1.29700000       2.24260000       0.10610000
C        2.22840000       1.74490000       1.24050000
C        3.61370000       1.25580000       0.77780000
C        3.56680000       0.15970000      -0.28870000
O        2.71390000      -0.89050000       0.13930000
C        1.88940000      -1.45680000      -0.86410000
C        0.72870000      -0.54720000      -1.29880000
C       -0.07900000       0.01690000      -0.10410000
H       -0.65670000       1.81270000       0.92770000
H       -0.63010000       1.98470000      -0.81640000
H        1.80150000       2.14050000      -0.86170000
H        1.12340000       3.31890000       0.21730000
H        2.37790000       2.54370000       1.97500000
H        1.74820000       0.92580000       1.78240000
H        4.20190000       2.09060000       0.37390000
H        4.16280000       0.88110000       1.64990000
H        3.21890000       0.57540000      -1.24260000
H        4.57880000      -0.23560000      -0.46800000
H        2.48680000      -1.75680000      -1.74000000
H        1.48700000      -2.37220000      -0.41520000
H        1.10970000       0.27070000      -1.92080000
H        0.08510000      -1.13830000      -1.96100000
H        0.30800000      -0.42330000       0.82020000
H       -1.12250000      -0.30900000      -0.17700000
