21
Properties=species:S:1:pos:R:3 gdb_26405=T pbc="F F F"
C       -0.03480000       1.57520000      -0.00520000
C        0.04150000       0.04400000       0.04820000
C        0.84070000      -0.42080000       1.27160000
C       -1.38270000      -0.56340000       0.00910000
C       -1.43260000      -2.05980000      -0.10980000
C       -1.50350000      -2.78900000      -1.25790000
O       -1.51690000      -4.12400000      -0.99480000
C       -1.45620000      -4.25540000       0.35540000
C       -1.40420000      -3.03600000       0.94910000
H        0.96530000       2.02040000      -0.01910000
H       -0.56870000       1.92030000      -0.89720000
H       -0.56120000       1.97180000       0.87150000
H        0.56590000      -0.30520000      -0.85180000
H        0.35320000      -0.09960000       2.20080000
H        0.93710000      -1.50950000       1.30110000
H        1.84920000       0.00590000       1.26430000
H       -1.92280000      -0.24970000       0.91240000
H       -1.92110000      -0.12010000      -0.83710000
H       -1.55840000      -2.51810000      -2.29990000
H       -1.46500000      -5.26640000       0.72830000
H       -1.35960000      -2.83920000       2.00930000
