22
Properties=species:S:1:pos:R:3 gdb_6039=T pbc="F F F"
C        0.12950000       1.55580000      -0.05260000
C       -0.02840000       0.03160000      -0.06300000
C       -1.47590000      -0.50900000       0.03210000
C       -2.15600000      -0.03670000       1.34010000
C       -2.31820000      -0.06210000      -1.17870000
C       -1.40760000      -2.05350000       0.11100000
C       -2.66570000      -2.85510000      -0.19630000
O       -0.38780000      -2.62470000       0.42470000
H        1.18900000       1.81960000      -0.12880000
H       -0.38320000       2.03610000      -0.89210000
H       -0.24900000       2.00540000       0.87080000
H        0.42490000      -0.36980000      -0.97760000
H        0.54700000      -0.40220000       0.75910000
H       -2.27940000       1.05000000       1.33710000
H       -3.15170000      -0.47500000       1.45970000
H       -1.55780000      -0.31000000       2.21490000
H       -1.88100000      -0.41010000      -2.12100000
H       -3.34520000      -0.43330000      -1.12390000
H       -2.37410000       1.02930000      -1.22230000
H       -2.83860000      -2.86960000      -1.27840000
H       -2.52270000      -3.87990000       0.14860000
H       -3.56020000      -2.42650000       0.26400000
