17
Properties=species:S:1:pos:R:3 gdb_85570=T pbc="F F F"
C       -0.00560000       1.57760000      -0.03730000
C        0.10770000       0.05420000       0.00090000
C        0.90070000      -0.54690000      -1.17680000
C        0.87600000      -2.06390000      -1.14770000
O        0.72450000      -2.76660000      -2.10570000
O        0.98470000      -2.62970000       0.08730000
C        1.37920000      -1.83350000       1.20490000
C        0.73950000      -0.44690000       1.28970000
O        0.79770000       0.18430000       2.31590000
H        0.98570000       2.04140000      -0.06190000
H       -0.55800000       1.90120000      -0.92360000
H       -0.51960000       1.94360000       0.85360000
H       -0.90320000      -0.38220000      -0.02470000
H        0.49830000      -0.23180000      -2.14050000
H        1.94400000      -0.20480000      -1.13570000
H        1.11840000      -2.40350000       2.09880000
H        2.47040000      -1.70000000       1.20710000
