17
Properties=species:S:1:pos:R:3 gdb_109493=T pbc="F F F"
C       -0.00310000       1.50910000       0.08080000
O        0.07880000       0.10050000      -0.09630000
C        0.56660000      -0.59110000       1.00540000
C       -0.43040000      -0.88690000       2.12960000
N       -1.27830000      -0.03650000       2.55160000
N       -0.17990000      -2.17370000       2.56000000
C        0.67390000      -2.97100000       1.70030000
C        1.06370000      -1.98690000       0.59040000
O        1.63890000      -2.27010000      -0.42060000
H        0.98640000       1.93020000       0.31690000
H       -0.34260000       1.91870000      -0.87300000
H       -0.70810000       1.77030000       0.87470000
H        1.43470000      -0.07390000       1.45840000
H       -1.87200000      -0.42500000       3.28760000
H       -0.76360000      -2.59950000       3.26220000
H        1.57440000      -3.33860000       2.21080000
H        0.16500000      -3.83580000       1.25610000
