25
Properties=species:S:1:pos:R:3 gdb_118834=T pbc="F F F"
C        0.40810000       1.54350000       0.09820000
C       -0.12750000       0.12150000      -0.10890000
C        0.51320000      -0.56860000      -1.29700000
C        1.82520000      -1.30920000      -1.16900000
C        0.55580000      -2.07430000      -1.47000000
C       -0.02450000      -3.00480000      -0.42100000
C        0.38600000      -2.57780000      -2.88570000
O        1.08080000      -3.80140000      -3.03490000
C        0.91730000      -4.37130000      -4.30930000
H        1.48920000       1.53400000       0.27230000
H        0.22130000       2.16870000      -0.78200000
H       -0.06890000       2.02660000       0.95680000
H        0.04260000      -0.46320000       0.80150000
H       -1.21630000       0.15940000      -0.24800000
H        0.38990000      -0.01140000      -2.22510000
H        2.56860000      -1.20790000      -1.95270000
H        2.24500000      -1.41480000      -0.17300000
H        0.20030000      -2.67360000       0.59540000
H       -1.11480000      -3.07850000      -0.51650000
H        0.39020000      -4.00870000      -0.54810000
H       -0.68570000      -2.72630000      -3.11240000
H        0.76910000      -1.83470000      -3.60580000
H       -0.14060000      -4.58850000      -4.53000000
H        1.30150000      -3.71340000      -5.10590000
H        1.48010000      -5.30810000      -4.32590000
