23
Properties=species:S:1:pos:R:3 gdb_91621=T pbc="F F F"
C       -0.21200000       1.53360000      -0.00460000
C        0.02600000       0.02490000       0.01170000
C        0.86930000      -0.51340000      -1.19120000
C        2.00290000      -1.33180000      -0.48960000
C        1.22470000      -1.92030000       0.71240000
C        0.82480000      -0.52720000       1.24960000
C        2.18920000       0.16090000       1.27550000
C        2.57900000       1.21960000       2.25480000
C        2.88100000      -0.32430000       0.23630000
H        0.73410000       2.08350000      -0.03600000
H       -0.79140000       1.82710000      -0.88690000
H       -0.76930000       1.86300000       0.88000000
H       -0.94990000      -0.47460000       0.01280000
H        0.26790000      -1.15400000      -1.84410000
H        1.27640000       0.29460000      -1.80580000
H        2.52090000      -2.03560000      -1.14270000
H        0.36840000      -2.53950000       0.42180000
H        1.86520000      -2.47650000       1.40160000
H        0.26030000      -0.49220000       2.18420000
H        2.53830000       0.84170000       3.28480000
H        3.59400000       1.58300000       2.06800000
H        1.89880000       2.07940000       2.21510000
H        3.85700000       0.00320000      -0.10340000
