21
Properties=species:S:1:pos:R:3 gdb_89422=T pbc="F F F"
C        0.03440000       1.54340000       0.00240000
C       -0.02710000       0.02970000       0.05060000
C       -0.83260000      -0.60510000       1.14550000
C        0.69600000      -0.67790000       1.18840000
C        1.37260000      -1.95600000       0.88870000
C        1.17270000      -2.64230000      -0.24030000
C        0.21990000      -2.16630000      -1.30620000
O       -1.09720000      -2.72910000      -1.14240000
C        0.06310000      -0.63950000      -1.31390000
H        0.95330000       1.89080000      -0.48470000
H       -0.81400000       1.95310000      -0.55910000
H        0.00450000       1.97490000       1.00800000
H       -1.31420000       0.05120000       1.86390000
H       -1.36060000      -1.52410000       0.92580000
H        1.17890000      -0.05380000       1.93430000
H        2.06480000      -2.33580000       1.63680000
H        1.68920000      -3.58360000      -0.41030000
H        0.60270000      -2.47100000      -2.29250000
H       -0.98760000      -3.65150000      -0.88830000
H       -0.82330000      -0.39790000      -1.91240000
H        0.92770000      -0.22020000      -1.84430000
