16
Properties=species:S:1:pos:R:3 gdb_44348=T pbc="F F F"
O        0.07920000      -0.07550000       0.25310000
C        0.03160000       1.10780000       0.03880000
C       -1.29570000       1.91690000       0.02640000
C       -1.30710000       3.02250000      -1.03600000
C       -0.10390000       3.22600000      -1.85010000
N       -0.65610000       4.42160000      -1.12490000
C        0.69100000       4.57900000      -0.40600000
C        0.98940000       3.15530000      -0.81150000
C        1.15720000       2.10050000      -0.00700000
H       -2.12950000       1.23390000      -0.16240000
H       -1.43510000       2.31190000       1.04100000
H       -2.26350000       3.12430000      -1.54160000
H       -0.00520000       3.17240000      -2.92890000
H        1.21080000       5.37880000      -0.94040000
H        0.65630000       4.79870000       0.66540000
H        1.74240000       2.17680000       0.90830000
