17
Properties=species:S:1:pos:R:3 gdb_79302=T pbc="F F F"
C        0.03970000       1.59700000       0.01190000
C        0.08880000       0.07790000       0.00560000
C        0.79820000      -0.67680000      -1.12600000
C        2.25390000      -0.81050000      -0.71070000
N        2.40930000      -0.06820000       0.55410000
C        1.08520000      -0.66080000       0.94550000
C        1.22860000      -1.79460000      -0.16850000
C        1.08020000      -3.19640000      -0.21180000
N        0.96670000      -4.35030000      -0.22400000
H        1.04430000       2.01690000      -0.06650000
H       -0.56320000       1.96730000      -0.82400000
H       -0.41620000       1.96600000       0.93740000
H       -0.90730000      -0.35510000       0.14210000
H        0.48750000      -0.80520000      -2.15500000
H        3.05980000      -0.98090000      -1.41200000
H        3.12960000      -0.54430000       1.09530000
H        0.89330000      -0.80470000       2.00590000
