19
Properties=species:S:1:pos:R:3 gdb_83852=T pbc="F F F"
C       -0.29760000       1.41680000       0.31340000
N        0.02790000       0.02990000       0.02020000
C        0.48930000      -0.42380000      -1.27880000
C        0.83550000       0.53340000      -2.42650000
N        2.23790000       0.95360000      -2.50410000
C        2.74800000       1.44730000      -1.22620000
C        2.59800000       0.46120000      -0.06060000
O        3.43580000       0.37470000       0.81040000
C        1.40780000      -0.45950000      -0.07920000
H        0.26510000       2.17890000      -0.24170000
H       -1.36070000       1.56790000       0.10000000
H       -0.14000000       1.59020000       1.38170000
H        0.03470000      -1.36580000      -1.58350000
H        0.57920000       0.04930000      -3.37300000
H        0.21400000       1.43570000      -2.36560000
H        2.80150000       0.15960000      -2.79330000
H        3.81110000       1.68800000      -1.31250000
H        2.23240000       2.38480000      -0.97730000
H        1.59050000      -1.38410000       0.46380000
