14
Properties=species:S:1:pos:R:3 gdb_52035=T pbc="F F F"
O        0.19850000       0.12240000       0.31780000
C        0.32130000       1.30250000       0.40650000
O        0.96320000       2.03590000      -0.53850000
C        1.06530000       3.43980000      -0.34850000
C        2.52450000       3.82510000      -0.04640000
C        2.74870000       5.34540000      -0.15800000
O        1.93710000       6.08640000      -0.63760000
C        2.97260000       3.34780000       1.26060000
N        3.30940000       3.00120000       2.31010000
H       -0.06720000       1.92290000       1.23630000
H        0.75760000       3.93040000      -1.27270000
H        0.40700000       3.78080000       0.45820000
H        3.16770000       3.36070000      -0.80910000
H        3.72740000       5.69750000       0.22460000
