20
Properties=species:S:1:pos:R:3 gdb_103222=T pbc="F F F"
C       -0.18780000       1.36370000       0.00320000
O        0.21440000       0.01150000      -0.06980000
C        0.79800000      -0.51210000       1.10320000
C        2.14720000       0.10070000       1.44250000
C       -0.17770000      -0.82900000       2.26050000
C       -0.84840000      -2.01550000       1.50290000
C       -0.55800000      -2.91240000       2.70000000
N        0.69460000      -2.03960000       2.70220000
C        0.66800000      -2.03890000       1.14700000
H        0.66390000       2.05280000       0.08650000
H       -0.72190000       1.58490000      -0.92400000
H       -0.86550000       1.54600000       0.85040000
H        2.05480000       1.15540000       1.71980000
H        2.59380000      -0.43260000       2.28430000
H        2.81730000       0.03420000       0.57940000
H       -0.62530000      -0.17980000       3.01640000
H       -1.69930000      -1.98550000       0.81890000
H       -1.17050000      -2.79330000       3.60010000
H       -0.34830000      -3.97180000       2.51750000
H        1.21370000      -2.79830000       0.58330000
