17
Properties=species:S:1:pos:R:3 gdb_98715=T pbc="F F F"
C       -0.07190000       1.38030000      -0.36380000
O       -0.20360000      -0.04580000      -0.40880000
C       -1.17230000      -0.55550000       0.38070000
O       -1.88560000       0.11340000       1.08660000
C       -1.22580000      -2.03700000       0.24810000
C       -1.92980000      -2.81830000       1.32460000
C       -2.58350000      -2.71260000      -0.02900000
C       -3.78370000      -1.95710000      -0.23240000
C       -4.80740000      -1.36060000      -0.43460000
H        0.74350000       1.62470000      -1.04470000
H       -0.99810000       1.86290000      -0.68560000
H        0.16250000       1.71420000       0.65020000
H       -0.37680000      -2.48160000      -0.25540000
H       -1.51380000      -3.77540000       1.61600000
H       -2.36620000      -2.22440000       2.11860000
H       -2.49630000      -3.59020000      -0.66340000
H       -5.70610000      -0.81870000      -0.59540000
