23
Properties=species:S:1:pos:R:3 gdb_85849=T pbc="F F F"
C        0.59420000       1.38860000      -0.36230000
C        0.01730000       0.03190000       0.02940000
O       -1.39050000       0.11180000       0.17180000
C        0.56330000      -1.13240000      -0.85430000
C        1.55980000      -1.48870000       0.28250000
O        2.84290000      -0.90380000       0.12110000
C        0.69380000      -0.65370000       1.27780000
C        1.43540000       0.23250000       2.27450000
C       -0.29130000      -1.56810000       2.01640000
H        1.67930000       1.33770000      -0.47320000
H        0.17510000       1.70530000      -1.32710000
H        0.34640000       2.14950000       0.38390000
H       -1.73810000       0.61690000      -0.57050000
H       -0.19430000      -1.90440000      -1.00630000
H        1.00920000      -0.86520000      -1.81750000
H        1.65130000      -2.55490000       0.53030000
H        3.26580000      -1.32730000      -0.63250000
H        2.21290000       0.83020000       1.79750000
H        0.73490000       0.90760000       2.77880000
H        1.91630000      -0.37910000       3.04580000
H        0.24890000      -2.17830000       2.74880000
H       -1.04420000      -0.97790000       2.54510000
H       -0.82450000      -2.24020000       1.33920000
