18
Properties=species:S:1:pos:R:3 gdb_72853=T pbc="F F F"
C       -0.55770000       1.56170000      -0.04030000
C       -0.09250000       0.12660000       0.02160000
C       -1.15670000      -0.98580000       0.24920000
N       -0.26650000      -1.65800000       1.23870000
C        0.71130000      -0.55410000       1.17630000
C        1.81420000      -0.88800000       0.12420000
N        1.00980000      -0.20010000      -0.91990000
C        3.12960000      -0.27780000       0.33250000
N        4.16030000       0.20390000       0.53770000
H        0.29590000       2.24410000      -0.01920000
H       -1.10870000       1.74400000      -0.97100000
H       -1.22370000       1.79890000       0.79570000
H       -2.09010000      -0.59680000       0.67430000
H       -1.40500000      -1.60820000      -0.61890000
H       -0.68550000      -1.78090000       2.15180000
H        1.01130000      -0.07930000       2.11080000
H        1.93140000      -1.96990000       0.00640000
H        0.76770000      -0.77210000      -1.72180000
