16
Properties=species:S:1:pos:R:3 gdb_114948=T pbc="F F F"
O       -0.06220000       1.36670000       0.36790000
C       -0.05900000      -0.04090000       0.28990000
C       -1.40020000      -0.59860000      -0.16610000
C       -1.49960000      -2.14680000      -0.15260000
N       -2.49850000      -2.46500000       0.87810000
C       -2.91430000      -1.35100000       1.32020000
O       -2.41110000      -0.19390000       0.80660000
C       -3.95180000      -1.14690000       2.38430000
O       -4.50600000      -2.04470000       2.95670000
H       -0.77500000       1.61250000       0.96830000
H        0.70980000      -0.31850000      -0.43990000
H        0.21110000      -0.50790000       1.25180000
H       -1.68440000      -0.14870000      -1.12110000
H       -1.82000000      -2.56230000      -1.11300000
H       -0.54510000      -2.62260000       0.10290000
H       -4.16070000      -0.07800000       2.59450000
