20
Properties=species:S:1:pos:R:3 gdb_107480=T pbc="F F F"
C       -0.01480000       1.58480000       0.05670000
C       -0.01190000       0.05440000      -0.05660000
C       -1.37930000      -0.56280000       0.04850000
C       -1.87310000      -1.68460000      -0.78510000
N       -2.48650000      -0.35720000      -0.98590000
C       -3.47960000      -0.20960000       0.14020000
C       -2.37120000      -0.37140000       1.18140000
C       -2.34720000      -0.82760000       2.57250000
O       -2.18410000       0.55980000       2.22940000
H        0.99830000       1.98200000      -0.05750000
H       -0.64280000       2.02230000      -0.72510000
H       -0.40330000       1.90410000       1.02640000
H        0.43030000      -0.24790000      -1.01300000
H        0.62520000      -0.38010000       0.72590000
H       -1.25240000      -1.99860000      -1.61930000
H       -2.47010000      -2.48010000      -0.34160000
H       -3.89740000       0.79980000       0.14600000
H       -4.28940000      -0.94670000       0.12180000
H       -3.27900000      -1.07120000       3.08110000
H       -1.45850000      -1.31710000       2.96900000
