20
Properties=species:S:1:pos:R:3 gdb_59186=T pbc="F F F"
C        0.01700000       1.48630000      -0.11800000
C        0.05760000      -0.03380000       0.09710000
C        0.74880000      -0.38250000       1.42360000
C       -1.35730000      -0.61170000       0.06820000
C       -2.10220000      -0.74850000      -1.29980000
N       -1.15570000      -1.91080000      -1.60240000
C       -1.55420000      -2.14820000      -0.14520000
C       -2.98830000      -1.81550000      -0.61700000
O       -4.09690000      -2.25230000      -0.62040000
H        1.02740000       1.90750000      -0.10350000
H       -0.43870000       1.74630000      -1.07850000
H       -0.55940000       1.98340000       0.67180000
H        0.62510000      -0.48660000      -0.72110000
H        1.76500000       0.02380000       1.45030000
H        0.20270000       0.03680000       2.27750000
H        0.81860000      -1.46490000       1.57030000
H       -1.97050000      -0.18920000       0.87150000
H       -2.33230000       0.01520000      -2.04040000
H       -1.60030000      -2.59500000      -2.22080000
H       -1.15880000      -2.98190000       0.43190000
