15
Properties=species:S:1:pos:R:3 gdb_48900=T pbc="F F F"
O       -0.06530000       0.01720000       0.05160000
C        0.04800000       1.21550000      -0.00500000
C        1.35770000       1.91930000       0.00160000
C        2.78390000       1.35300000       0.07700000
C        2.96390000       2.88100000       0.00350000
C        1.77830000       3.06170000      -1.02680000
C        1.15410000       4.11520000      -0.11910000
O        0.55600000       5.14370000      -0.19180000
C        1.71490000       3.16330000       0.93110000
H       -0.83810000       1.88780000      -0.06670000
H        3.06610000       0.86430000       1.01240000
H        3.12410000       0.77120000      -0.78280000
H        3.87470000       3.47770000       0.00210000
H        1.83150000       2.95160000      -2.10780000
H        1.69800000       3.16600000       2.01890000
