16
Properties=species:S:1:pos:R:3 gdb_75559=T pbc="F F F"
N        0.00840000       1.36720000       0.16070000
C       -0.06470000       0.00020000       0.00480000
N       -1.17960000      -0.60840000      -0.00860000
C       -1.19230000      -2.06450000      -0.04850000
C        0.13270000      -2.69110000       0.36060000
O        1.20240000      -2.06900000      -0.35260000
C        1.30660000      -0.70910000      -0.01530000
C        2.21580000      -0.06330000      -0.97260000
N        2.91120000       0.50710000      -1.69750000
H        0.76540000       1.84180000      -0.31080000
H       -0.88670000       1.82820000       0.07160000
H       -1.99280000      -2.42470000       0.60930000
H       -1.45710000      -2.38390000      -1.06530000
H        0.29700000      -2.58410000       1.44470000
H        0.18130000      -3.75220000       0.10570000
H        1.75050000      -0.58520000       0.98940000
