15
Properties=species:S:1:pos:R:3 gdb_131671=T pbc="F F F"
O        0.01100000       1.40780000      -0.04700000
C       -0.00730000      -0.00420000      -0.09610000
C       -1.42180000      -0.48230000       0.01220000
C       -2.48790000       0.32960000       0.13600000
C       -3.79510000      -0.26260000       0.23070000
N       -4.04640000      -1.52500000       0.20770000
O       -2.94500000      -2.37100000       0.07960000
C       -1.63880000      -1.92380000      -0.02030000
N       -0.68040000      -2.75150000      -0.13500000
H        0.92420000       1.69830000      -0.11780000
H        0.42120000      -0.39860000      -1.03060000
H        0.57630000      -0.46140000       0.71810000
H       -2.36900000       1.40470000       0.16400000
H       -4.68240000       0.35540000       0.33160000
H       -1.02540000      -3.71230000      -0.13890000
