16
Properties=species:S:1:pos:R:3 gdb_45140=T pbc="F F F"
O       -0.04260000      -0.10840000      -0.56270000
C        0.09210000       0.99880000      -0.10930000
O       -0.50600000       1.27440000       1.11830000
C       -1.20550000       2.45770000       1.32700000
C       -0.92310000       3.19250000       2.60400000
C       -0.53320000       3.80030000       1.27090000
N        0.83810000       3.88800000       0.87660000
C        1.36450000       3.19610000      -0.17380000
C        0.97970000       2.00260000      -0.68190000
H       -2.23220000       2.41590000       0.96970000
H       -1.74300000       3.63290000       3.15890000
H       -0.11230000       2.78700000       3.19770000
H       -1.15290000       4.62060000       0.90940000
H        1.29090000       4.76090000       1.09640000
H        2.21660000       3.69280000      -0.63270000
H        1.50430000       1.64640000      -1.55920000
