21
Properties=species:S:1:pos:R:3 gdb_63183=T pbc="F F F"
C       -0.19180000       1.55860000       0.06470000
C       -0.02950000       0.05240000       0.00660000
C       -1.19790000      -0.72570000       0.58480000
C        0.69230000      -0.59950000      -1.16400000
C        1.37380000       0.17480000      -2.27940000
O        2.36780000       1.08270000      -1.80440000
C        3.16230000       0.49830000      -0.81120000
O        2.44610000       0.28820000       0.38140000
C        1.34140000      -0.55850000       0.20510000
H        0.68380000       2.07860000      -0.32280000
H       -1.06580000       1.87200000      -0.51830000
H       -0.35260000       1.88370000       1.09890000
H       -2.11640000      -0.53740000       0.01650000
H       -1.01460000      -1.80520000       0.56840000
H       -1.38400000      -0.43440000       1.62510000
H        0.30280000      -1.56110000      -1.48700000
H        1.84390000      -0.54380000      -2.97020000
H        0.66630000       0.77980000      -2.85480000
H        3.58570000      -0.45510000      -1.17630000
H        3.96010000       1.20490000      -0.57590000
H        1.42070000      -1.47330000       0.78970000
