19
Properties=species:S:1:pos:R:3 gdb_100580=T pbc="F F F"
C        0.19310000       1.37180000      -0.31190000
C       -0.04470000      -0.12560000      -0.02150000
C       -1.52970000      -0.44510000       0.14130000
O       -1.99690000       0.28500000       1.26640000
C        0.57820000      -0.97580000      -1.11570000
O       -0.07660000      -1.60890000      -1.91320000
C        2.10900000      -0.96910000      -1.21670000
C        2.54090000      -0.30880000      -2.51820000
O        3.31730000       0.60670000      -2.58270000
H        1.25690000       1.61470000      -0.38040000
H       -0.28240000       1.66040000      -1.25560000
H       -0.25070000       1.96490000       0.48950000
H        0.46390000      -0.37050000       0.92140000
H       -2.06630000      -0.16780000      -0.77720000
H       -1.66210000      -1.52770000       0.27970000
H       -2.94480000       0.14470000       1.34220000
H        2.60080000      -0.47460000      -0.37800000
H        2.42060000      -2.01970000      -1.26420000
H        2.06190000      -0.74250000      -3.42100000
