18
Properties=species:S:1:pos:R:3 gdb_48164=T pbc="F F F"
N        0.02520000       1.36060000       0.41350000
C       -0.04910000       0.12910000       0.07630000
N       -1.23280000      -0.54490000      -0.02290000
C       -2.50830000       0.13470000       0.13610000
C       -3.63060000      -0.86670000       0.21460000
C       -4.97760000      -0.52740000      -0.29640000
N       -4.14110000      -1.50460000      -1.01770000
C        1.16870000      -0.72310000      -0.21300000
O        2.28960000      -0.29310000      -0.15450000
H        1.01280000       1.61780000       0.46490000
H       -1.23930000      -1.43240000      -0.50060000
H       -2.45160000       0.73970000       1.04740000
H       -2.68440000       0.84090000      -0.69090000
H       -3.55920000      -1.55940000       1.05090000
H       -5.85840000      -0.94290000       0.18350000
H       -5.12280000       0.45620000      -0.73580000
H       -3.73060000      -1.05010000      -1.83180000
H        0.96750000      -1.78440000      -0.48630000
