18
Properties=species:S:1:pos:R:3 gdb_71469=T pbc="F F F"
C        0.06410000       1.54050000       0.08990000
C        0.02450000       0.04280000       0.02570000
C       -1.27540000      -0.76350000       0.26020000
C       -0.34240000      -1.80160000       0.84730000
N        0.72740000      -0.80270000       1.15610000
C        0.92790000      -1.81730000       0.03870000
C        0.80400000      -0.75250000      -1.04210000
C        1.87730000      -2.87590000       0.10670000
C        2.67640000      -3.77510000       0.12700000
H        1.09590000       1.90500000       0.06970000
H       -0.46820000       1.97450000      -0.76470000
H       -0.40840000       1.90600000       1.00700000
H       -1.88850000      -0.30720000       1.04260000
H       -1.89880000      -1.01620000      -0.60370000
H       -0.56860000      -2.60820000       1.53500000
H        0.30090000      -1.00360000      -1.98140000
H        1.77790000      -0.30100000      -1.24700000
H        3.38440000      -4.56570000       0.15560000
