19
Properties=species:S:1:pos:R:3 gdb_75639=T pbc="F F F"
C        0.31490000       1.28150000       0.05040000
N       -0.32590000      -0.02000000      -0.01370000
C       -0.06780000      -0.96670000      -1.04200000
N       -0.05020000      -0.93940000      -2.30530000
C        0.09290000      -2.08280000      -0.05100000
O       -0.28160000      -3.39440000      -0.20190000
C        1.16420000      -1.70720000       0.95020000
C       -0.19170000      -1.04150000       1.04370000
C       -1.10790000      -1.06420000       2.22540000
H        1.37600000       1.22750000       0.33810000
H        0.24980000       1.76050000      -0.93080000
H       -0.20670000       1.92150000       0.76820000
H       -0.21360000       0.00400000      -2.66370000
H       -1.05970000      -3.41610000      -0.77100000
H        1.34280000      -2.48870000       1.68420000
H        2.05470000      -1.16200000       0.64840000
H       -0.83850000      -0.30080000       2.96490000
H       -2.14180000      -0.88460000       1.91440000
H       -1.05820000      -2.03780000       2.72240000
