16
Properties=species:S:1:pos:R:3 gdb_66286=T pbc="F F F"
O        0.18540000       1.54950000       0.25190000
C       -0.03370000       0.18010000       0.03980000
C       -1.51480000      -0.19060000      -0.21640000
N       -1.48250000      -1.43810000      -0.99770000
C       -0.34380000      -1.32150000      -1.91650000
C        0.58620000      -0.26710000      -1.31660000
O        1.55960000       0.24930000      -1.79430000
C        0.53880000      -0.66760000       1.09230000
C        1.01190000      -1.38420000       1.93520000
H        1.03510000       1.75300000      -0.16860000
H       -2.09240000      -0.32030000       0.69890000
H       -1.96580000       0.61520000      -0.80750000
H       -1.31940000      -2.21080000      -0.36110000
H        0.17040000      -2.27340000      -2.07280000
H       -0.66500000      -0.96200000      -2.90370000
H        1.43470000      -1.99730000       2.69300000
