18
Properties=species:S:1:pos:R:3 gdb_42915=T pbc="F F F"
O        0.11200000       0.08570000      -0.37360000
C        0.01360000       1.25130000      -0.11340000
C       -1.10640000       2.24670000      -0.11590000
C       -1.01350000       3.08250000       1.12130000
N       -0.11060000       3.40040000       0.02460000
C        1.03040000       2.39780000       0.10230000
C        1.97150000       2.44180000       1.27460000
C        1.78980000       1.58940000       2.51160000
C        2.87480000       1.25690000       1.52250000
H       -1.96500000       2.27280000      -0.77680000
H       -1.80640000       3.81230000       1.25640000
H       -0.62330000       2.65860000       2.04010000
H        1.59650000       2.50530000      -0.83180000
H        2.41530000       3.42200000       1.42980000
H        2.07060000       2.01960000       3.46670000
H        0.94130000       0.91540000       2.55940000
H        2.72300000       0.38200000       0.89970000
H        3.90660000       1.44820000       1.79380000
