20
Properties=species:S:1:pos:R:3 gdb_43628=T pbc="F F F"
O        0.06930000      -0.10930000      -0.00350000
C       -0.01170000       1.08900000      -0.02550000
C       -1.15390000       2.13550000      -0.00870000
C       -0.02300000       3.21070000      -0.03140000
N        0.93040000       2.08860000      -0.06630000
C        0.02650000       4.14800000      -1.22000000
C       -0.95890000       5.35200000      -1.25330000
C        0.18330000       6.22230000      -1.84350000
C        1.19980000       5.16670000      -1.33160000
H       -1.79310000       2.11630000      -0.89380000
H       -1.77060000       2.11150000       0.89110000
H        0.04200000       3.78560000       0.90210000
H        1.93910000       2.05530000      -0.04590000
H       -0.05220000       3.56090000      -2.14230000
H       -1.87690000       5.24200000      -1.83490000
H       -1.22690000       5.67220000      -0.24060000
H        0.14600000       6.25100000      -2.93600000
H        0.28470000       7.24510000      -1.47410000
H        1.58990000       5.43200000      -0.34270000
H        2.04100000       4.90600000      -1.97820000
