12
Properties=species:S:1:pos:R:3 gdb_310=T pbc="F F F"
O        0.28670000       1.26650000      -0.42010000
C        0.00170000      -0.03360000       0.03590000
C        0.12660000      -0.30480000       1.57230000
C       -1.30980000      -0.85060000       1.52410000
O       -1.97020000      -1.51450000       2.26840000
C       -1.52290000      -0.30940000       0.10330000
H        1.24080000       1.39240000      -0.40500000
H        0.52960000      -0.79480000      -0.55300000
H        0.90270000      -0.98360000       1.93410000
H        0.17400000       0.63610000       2.13180000
H       -2.08070000       0.63360000       0.11540000
H       -1.97200000      -0.98330000      -0.62890000
