12
Properties=species:S:1:pos:R:3 gdb_25523=T pbc="F F F"
O        0.07690000      -0.03840000       0.08290000
C       -0.02720000       1.13900000      -0.02660000
O        1.09480000       1.94390000       0.09490000
C        0.98540000       3.29200000       0.05880000
N       -0.21640000       3.85950000       0.11550000
C       -0.18740000       5.19200000       0.08360000
N        0.90420000       5.94970000       0.01590000
C        2.04170000       5.25000000      -0.02880000
N        2.15200000       3.92480000      -0.01590000
H       -0.93980000       1.70920000      -0.23110000
H       -1.14780000       5.70050000       0.12170000
H        2.96870000       5.81560000      -0.08270000
