20
Properties=species:S:1:pos:R:3 gdb_60026=T pbc="F F F"
C       -1.48570000      -0.43250000      -0.18000000
C        0.00280000      -0.16290000       0.08140000
C        0.46100000      -0.83760000       1.38140000
C        0.82730000      -0.61510000      -1.13770000
C        2.34480000      -0.27640000      -1.06990000
C        3.00920000      -0.79120000      -2.35480000
O        3.49440000      -1.88470000      -2.43820000
C        2.57590000       1.15920000      -0.91850000
N        2.76400000       2.29640000      -0.83050000
H       -1.83210000       0.07470000      -1.08640000
H       -1.67690000      -1.50520000      -0.30200000
H       -2.09710000      -0.07990000       0.65610000
H        0.13640000       0.92130000       0.19110000
H        0.39000000      -1.92920000       1.30480000
H        1.49340000      -0.58430000       1.64140000
H       -0.16840000      -0.52230000       2.21900000
H        0.75120000      -1.70210000      -1.25890000
H        0.41170000      -0.16030000      -2.04480000
H        2.80600000      -0.80990000      -0.23390000
H        2.96520000      -0.09210000      -3.21670000
