22
Properties=species:S:1:pos:R:3 gdb_110145=T pbc="F F F"
C        1.92420000       2.57730000      -3.13950000
C        2.05590000       1.84150000      -1.80720000
N        1.72210000       0.42780000      -1.97970000
C        1.63150000      -0.45320000      -0.82030000
C        1.87530000       0.02080000       0.59730000
O        3.25440000       0.26900000       0.84580000
C        0.40560000      -0.11530000      -1.61230000
C       -0.74240000       0.70930000      -1.06780000
O       -1.56360000       1.22390000      -2.10610000
H        2.55620000       2.11070000      -3.89960000
H        0.89350000       2.55380000      -3.51320000
H        2.21450000       3.62710000      -3.03320000
H        3.09130000       1.88110000      -1.45450000
H        1.45520000       2.35710000      -1.04260000
H        2.07470000      -1.43660000      -1.00120000
H        1.36920000       0.96370000       0.81150000
H        1.47410000      -0.72920000       1.29770000
H        3.74130000      -0.53390000       0.63120000
H        0.04880000      -0.86520000      -2.31860000
H       -1.39560000       0.05830000      -0.47610000
H       -0.39910000       1.50980000      -0.39960000
H       -1.01800000       1.79250000      -2.65880000
