19
Properties=species:S:1:pos:R:3 gdb_94036=T pbc="F F F"
O       -0.52240000       1.52240000      -0.29920000
C       -0.01330000       0.22370000       0.01510000
C       -1.10910000      -0.86250000       0.20250000
C       -1.05880000      -1.75150000      -1.06450000
C        0.25540000      -1.37260000      -1.71220000
C        0.78160000      -2.09990000      -2.92640000
C        0.97800000      -3.53110000      -2.69860000
C        1.13340000      -4.70560000      -2.49710000
C        0.83210000      -0.33460000      -1.10340000
H       -0.88700000       1.47690000      -1.19010000
H        0.55340000       0.38290000       0.93810000
H       -0.88200000      -1.46430000       1.08740000
H       -2.08140000      -0.39280000       0.36920000
H       -1.09610000      -2.81980000      -0.82710000
H       -1.89610000      -1.56690000      -1.75240000
H        0.07510000      -1.97190000      -3.76030000
H        1.72500000      -1.64510000      -3.25010000
H        1.27650000      -5.74370000      -2.32610000
H        1.76830000       0.12610000      -1.40100000
