15
Properties=species:S:1:pos:R:3 gdb_54367=T pbc="F F F"
N       -0.11810000       1.25260000       0.22640000
C        0.01530000      -0.07240000      -0.04840000
O        1.06770000      -0.63250000      -0.30000000
C       -1.27310000      -0.79820000      -0.01360000
C       -1.84020000      -1.86660000      -0.92510000
C       -3.23940000      -1.27940000      -0.60310000
C       -3.04310000      -1.55860000       0.84340000
C       -1.63910000      -2.15260000       0.55680000
N       -2.65130000      -0.21370000       0.28620000
H        0.69890000       1.83950000       0.22720000
H       -1.02550000       1.64220000       0.42350000
H       -1.39030000      -2.33420000      -1.78790000
H       -4.13230000      -1.11400000      -1.19330000
H       -3.74480000      -1.66490000       1.66130000
H       -1.00620000      -2.88050000       1.04190000
