23
Properties=species:S:1:pos:R:3 gdb_73263=T pbc="F F F"
C        0.03060000       1.51500000      -0.08180000
C       -0.03130000       0.00070000       0.04860000
C       -1.34530000      -0.65490000       0.54330000
C       -0.49900000      -1.67540000       1.35070000
C        0.70710000      -0.69820000       1.24000000
C        2.12440000      -1.21140000       0.98950000
C        2.27800000      -1.78610000      -0.42560000
C        1.67010000      -0.82090000      -1.44160000
O        0.28550000      -0.62640000      -1.19830000
H        1.04170000       1.85910000      -0.32520000
H       -0.64000000       1.85080000      -0.87930000
H       -0.27050000       2.00010000       0.85200000
H       -1.91290000       0.01700000       1.19340000
H       -1.99770000      -1.03650000      -0.24440000
H       -0.83690000      -1.92930000       2.35790000
H       -0.33790000      -2.60020000       0.79180000
H        0.70200000      -0.02590000       2.10470000
H        2.83160000      -0.37890000       1.10810000
H        2.39600000      -1.95630000       1.74740000
H        3.33500000      -1.95980000      -0.65750000
H        1.76550000      -2.75140000      -0.51160000
H        2.21550000       0.13780000      -1.42460000
H        1.73750000      -1.21700000      -2.45940000
