19
Properties=species:S:1:pos:R:3 gdb_52104=T pbc="F F F"
N       -0.39810000       1.02990000      -0.46730000
C       -0.48400000      -0.22910000      -0.51040000
O       -0.50700000      -0.93790000       0.63860000
C       -0.76110000      -2.34150000       0.51470000
C       -2.22490000      -2.63020000       0.40190000
C       -3.27830000      -2.50700000       1.51690000
C       -4.03540000      -3.72770000       0.89320000
C       -2.96090000      -3.79700000      -0.20230000
N       -2.84810000      -2.52960000      -0.91700000
H       -0.36210000       1.40280000      -1.41400000
H       -0.53700000      -0.85330000      -1.41110000
H       -0.23420000      -2.75350000      -0.35490000
H       -0.34290000      -2.78810000       1.42090000
H       -2.88160000      -2.72980000       2.51020000
H       -3.80670000      -1.55010000       1.56030000
H       -4.03510000      -4.59700000       1.55460000
H       -5.05750000      -3.55960000       0.53840000
H       -2.58380000      -4.68890000      -0.69050000
H       -3.71330000      -1.99170000      -0.90590000
