20
Properties=species:S:1:pos:R:3 gdb_9752=T pbc="F F F"
C       -0.03980000       1.57280000      -0.01050000
C       -0.02540000       0.03760000      -0.00480000
C       -1.47970000      -0.49080000      -0.03720000
O       -2.23710000      -0.13930000       1.11050000
C        0.78360000      -0.56980000      -1.19070000
C        1.57180000      -1.77520000      -0.61430000
C        1.55260000      -1.51210000       0.87240000
C        0.70690000      -0.53650000       1.19750000
H        0.97000000       1.97760000       0.10950000
H       -0.44790000       1.95300000      -0.95420000
H       -0.66720000       1.95360000       0.80060000
H       -2.00950000      -0.04790000      -0.88870000
H       -1.46920000      -1.58200000      -0.18380000
H       -1.87170000      -0.62610000       1.85620000
H        0.13820000      -0.84960000      -2.02980000
H        1.48510000       0.18200000      -1.56600000
H        1.09140000      -2.73570000      -0.84700000
H        2.58810000      -1.84150000      -1.01930000
H        2.15280000      -2.08090000       1.57490000
H        0.52640000      -0.17740000       2.20620000
