17
Properties=species:S:1:pos:R:3 gdb_44177=T pbc="F F F"
O        0.20520000       0.15200000      -0.76830000
C        0.07010000       1.21580000      -0.23850000
C       -1.14640000       1.98510000       0.32030000
C       -0.17540000       3.10190000       0.78490000
C        0.44660000       2.85730000       2.20500000
C        1.68880000       2.17000000       1.53240000
C        1.04170000       2.34830000       0.12880000
C        0.73320000       4.04360000       2.98470000
C        0.98090000       5.04070000       3.61010000
H       -1.80610000       2.30270000      -0.49510000
H       -1.75430000       1.47730000       1.07510000
H       -0.43770000       4.12970000       0.54530000
H       -0.15440000       2.16350000       2.80280000
H        2.59390000       2.76710000       1.64750000
H        1.90010000       1.14450000       1.84280000
H        1.67030000       2.73890000      -0.67190000
H        1.19460000       5.91540000       4.17310000
