18
Properties=species:S:1:pos:R:3 gdb_113692=T pbc="F F F"
O        0.03600000       1.29550000       0.39440000
C       -0.16230000       0.08830000      -0.31260000
C       -1.40740000      -0.62010000       0.16230000
C       -1.58350000      -2.11210000       0.10830000
N       -1.26510000      -1.43720000       1.35100000
C       -2.02290000      -1.32480000       2.49530000
O       -2.24760000      -0.25400000       3.02840000
C       -2.48580000      -2.62490000       3.14210000
O       -3.12380000      -2.36780000       4.35710000
H       -0.03980000       1.09770000       1.33560000
H       -0.26270000       0.36050000      -1.36880000
H        0.69730000      -0.59430000      -0.21880000
H       -2.31580000      -0.02130000       0.11390000
H       -2.59320000      -2.49340000      -0.02490000
H       -0.79710000      -2.73950000      -0.30300000
H       -3.16060000      -3.14450000       2.44130000
H       -1.61060000      -3.27920000       3.27470000
H       -3.10260000      -1.40180000       4.45220000
