19
Properties=species:S:1:pos:R:3 gdb_36923=T pbc="F F F"
C       -0.13330000       1.58480000      -0.50260000
C       -0.17260000       0.08140000      -0.63950000
C       -0.71910000      -0.78480000       0.41360000
O       -1.46470000      -0.51570000      -0.77500000
C        1.21680000       2.08340000       0.03350000
O        2.27420000       1.67330000      -0.84340000
C        3.03410000       2.79980000      -1.27500000
C        2.36100000       3.98790000      -0.64830000
C        1.34110000       3.58270000       0.09800000
H       -0.31680000       2.04820000      -1.47920000
H       -0.93640000       1.90590000       0.17130000
H        0.58530000      -0.33940000      -1.29900000
H       -0.35870000      -1.80700000       0.52020000
H       -1.11750000      -0.33840000       1.32470000
H        1.38710000       1.62810000       1.02450000
H        4.08160000       2.69380000      -0.94980000
H        3.04150000       2.84650000      -2.37490000
H        2.69480000       5.00640000      -0.80030000
H        0.67040000       4.20200000       0.68000000
