18
Properties=species:S:1:pos:R:3 gdb_50211=T pbc="F F F"
O       -0.65680000       0.81120000       0.62590000
C        0.13480000       1.02610000      -0.25860000
C        1.30520000       1.97090000      -0.16400000
C        1.25090000       3.13120000      -1.21720000
N        1.86390000       4.30260000      -0.56160000
C        1.18030000       4.82610000       0.63510000
C        0.28260000       3.78020000       1.30530000
C        1.44850000       2.74850000       1.14510000
C        2.37520000       3.93530000       0.75290000
H        0.03590000       0.51410000      -1.24460000
H        2.20860000       1.37340000      -0.35730000
H        1.82070000       2.89320000      -2.11880000
H        0.22590000       3.36500000      -1.52350000
H        1.09880000       5.90440000       0.71830000
H        0.11510000       4.02850000       2.35570000
H       -0.67860000       3.53860000       0.84430000
H        1.68710000       2.14640000       2.01940000
H        3.40670000       4.12370000       1.02520000
