20
Properties=species:S:1:pos:R:3 gdb_22345=T pbc="F F F"
C       -0.17720000       1.52660000       0.02170000
C        0.06720000       0.01050000       0.00040000
C        0.90660000      -0.46220000      -1.21900000
C        1.99300000      -1.33940000      -0.62280000
C        1.89920000      -1.25470000       0.82910000
C        0.84430000      -0.51000000       1.20080000
C        0.40960000      -0.22400000       2.60190000
N        2.79870000      -2.00320000      -1.36210000
O        3.72330000      -2.73330000      -0.58420000
H        0.77100000       2.07410000       0.06280000
H       -0.70880000       1.84250000      -0.88150000
H       -0.78080000       1.82800000       0.88350000
H       -0.91620000      -0.48270000      -0.00890000
H        0.31260000      -1.00130000      -1.96100000
H        1.35510000       0.39500000      -1.73350000
H        2.58900000      -1.75620000       1.49350000
H        1.04190000      -0.73550000       3.33170000
H        0.44060000       0.85080000       2.81910000
H       -0.62880000      -0.54180000       2.76330000
H        4.24710000      -3.17330000      -1.26100000
