19
Properties=species:S:1:pos:R:3 gdb_13777=T pbc="F F F"
C       -0.65300000       2.44040000       1.30700000
C       -0.63310000       1.35590000       0.22050000
C        0.41450000       0.27340000       0.51360000
C       -2.01490000       0.74180000       0.08660000
N       -3.01150000       1.45260000      -0.69960000
C       -2.56170000       0.12440000      -1.17350000
C       -1.79790000       0.11690000      -2.45140000
O       -1.66720000      -0.86180000      -3.14430000
H        0.32560000       2.92200000       1.39750000
H       -1.39330000       3.21140000       1.07400000
H       -0.90360000       2.01220000       2.28530000
H       -0.38530000       1.83860000      -0.73140000
H        0.19480000      -0.24220000       1.45610000
H        0.44540000      -0.48050000      -0.27940000
H        1.41300000       0.71220000       0.60300000
H       -2.35970000       0.24650000       0.99670000
H       -3.93870000       1.37980000      -0.29060000
H       -3.21340000      -0.73720000      -1.04940000
H       -1.35700000       1.09840000      -2.72930000
