10
Properties=species:S:1:pos:R:3 gdb_21677=T pbc="F F F"
N        0.00500000       1.35450000       0.13990000
C       -0.01800000      -0.00250000       0.04010000
N       -1.12660000      -0.71720000      -0.01040000
O       -0.65510000      -2.03750000      -0.03480000
C        0.67670000      -1.95330000      -0.00690000
N        1.14480000      -0.74330000       0.03880000
C        1.42330000      -3.16490000      -0.03020000
N        2.02470000      -4.15140000      -0.05020000
H        0.86060000       1.79460000      -0.15880000
H       -0.84320000       1.83550000      -0.11520000
