20
Properties=species:S:1:pos:R:3 gdb_91494=T pbc="F F F"
C        0.02790000       1.53610000       0.13540000
C        0.11700000       0.02320000      -0.05460000
C        1.10780000      -0.50400000      -1.12880000
N        2.01630000      -1.39630000      -0.34460000
C        2.27590000      -0.48140000       0.89290000
C        0.74040000      -0.74560000       1.14710000
O       -0.27980000      -1.23790000       2.08870000
C       -0.42570000      -2.40620000       1.17730000
C        1.03010000      -2.09860000       0.66890000
H        1.00530000       1.99150000       0.32380000
H       -0.39130000       2.01620000      -0.75520000
H       -0.62380000       1.77880000       0.98160000
H       -0.89250000      -0.34770000      -0.24870000
H        0.62270000      -1.08530000      -1.91690000
H        1.70250000       0.28430000      -1.60030000
H        2.94630000      -0.97360000       1.59500000
H        2.63920000       0.51380000       0.62540000
H       -0.53350000      -3.33460000       1.74230000
H       -1.26470000      -2.27260000       0.49140000
H        1.69750000      -2.64870000       1.33260000
