21
Properties=species:S:1:pos:R:3 gdb_92108=T pbc="F F F"
C       -0.16360000       1.57430000      -0.02670000
C        0.02020000       0.05180000      -0.03170000
C        0.87230000      -0.47510000      -1.23170000
C        2.18200000      -0.89580000      -0.57770000
O        2.76030000       0.29400000       0.06090000
C        2.25310000      -0.15900000       1.32570000
C        2.96380000       0.29560000       2.55690000
C        1.82610000      -1.49600000       0.79890000
C        0.77110000      -0.47820000       1.19680000
H        0.80800000       2.07530000      -0.04400000
H       -0.73540000       1.90520000      -0.90050000
H       -0.70550000       1.90290000       0.86700000
H       -0.97040000      -0.41700000      -0.05690000
H        0.39650000      -1.33720000      -1.71380000
H        1.03710000       0.29080000      -1.99570000
H        2.91320000      -1.40240000      -1.21040000
H        2.88370000       1.38260000       2.67020000
H        2.52710000      -0.17110000       3.44460000
H        4.02610000       0.03510000       2.51180000
H        1.94820000      -2.50810000       1.15990000
H        0.23360000      -0.62690000       2.12810000
