23
Properties=species:S:1:pos:R:3 gdb_1294=T pbc="F F F"
C        0.08960000       1.58170000      -0.03990000
C        0.02890000       0.05180000      -0.04380000
C       -1.39900000      -0.49670000       0.06020000
C       -1.45750000      -2.02880000       0.05980000
C       -2.87310000      -2.63470000       0.05710000
C       -2.80660000      -4.15530000      -0.14050000
C       -3.66220000      -2.29240000       1.32910000
H        1.12020000       1.94260000      -0.11650000
H       -0.47360000       2.00220000      -0.88060000
H       -0.33920000       1.99250000       0.88110000
H        0.49780000      -0.33170000      -0.95980000
H        0.62830000      -0.34090000       0.78840000
H       -1.86500000      -0.10090000       0.97150000
H       -1.99610000      -0.10990000      -0.77810000
H       -0.91880000      -2.39890000      -0.82350000
H       -0.90650000      -2.41450000       0.93050000
H       -3.41500000      -2.20840000      -0.80030000
H       -2.26850000      -4.63400000       0.68680000
H       -3.80840000      -4.59590000      -0.18160000
H       -2.28640000      -4.41560000      -1.06850000
H       -4.66090000      -2.74130000       1.30320000
H       -3.15040000      -2.67670000       2.22010000
H       -3.78930000      -1.21370000       1.45720000
