16
Properties=species:S:1:pos:R:3 gdb_89606=T pbc="F F F"
O       -0.04810000       1.44860000      -0.07240000
C       -0.00050000       0.05400000      -0.06890000
C        0.47180000      -0.68530000       1.24820000
C       -0.91470000      -1.33310000       1.30970000
C       -1.32510000      -2.64850000       1.91390000
C       -1.14780000      -2.67300000       3.36830000
N       -0.99400000      -2.68790000       4.51290000
O       -1.86640000      -0.25800000       1.34880000
C       -1.35210000      -0.67430000       0.06760000
H       -0.65820000       1.70090000       0.63300000
H        0.57340000      -0.25700000      -0.94470000
H        1.28400000      -1.39280000       1.06390000
H        0.72410000      -0.04310000       2.09450000
H       -2.37610000      -2.84410000       1.67800000
H       -0.73000000      -3.46010000       1.47930000
H       -2.07950000      -0.96160000      -0.68370000
