20
Properties=species:S:1:pos:R:3 gdb_114556=T pbc="F F F"
C        0.02410000       1.29670000      -0.10140000
O       -0.01150000      -0.06900000       0.23980000
C       -1.30010000      -0.63560000       0.16580000
C       -1.74160000      -1.05780000      -1.27490000
N       -1.84350000      -2.54800000      -1.16480000
C       -0.58950000      -2.84370000      -0.36720000
C       -1.28660000      -2.04390000       0.77430000
O       -0.95210000      -2.06640000       2.11930000
C       -2.58190000      -2.64290000       0.15420000
H        1.05580000       1.63510000       0.02100000
H       -0.28320000       1.47650000      -1.14340000
H       -0.62620000       1.89520000       0.55570000
H       -2.02560000       0.01630000       0.67450000
H       -2.70670000      -0.64800000      -1.58350000
H       -0.98520000      -0.78670000      -2.01590000
H       -0.51890000      -3.91680000      -0.16900000
H        0.34100000      -2.46030000      -0.78900000
H       -0.90920000      -2.98330000       2.40900000
H       -3.52020000      -2.08240000       0.20800000
H       -2.74830000      -3.68980000       0.42330000
