19
Properties=species:S:1:pos:R:3 gdb_92217=T pbc="F F F"
C       -0.42880000       1.54740000      -0.04490000
C       -0.01760000       0.07850000      -0.03740000
O        0.72530000      -0.27540000      -1.23100000
C        2.02260000      -0.69680000      -0.81680000
C        2.78470000       0.50260000      -0.19420000
C        2.32520000       0.22450000       1.25250000
O        2.84970000      -1.13170000       1.42030000
C        1.78540000      -1.49650000       0.51210000
C        0.88690000      -0.38920000       1.09420000
H        0.43210000       2.21670000       0.03070000
H       -0.96220000       1.78140000      -0.97050000
H       -1.09910000       1.75510000       0.79630000
H       -0.93110000      -0.53390000      -0.03480000
H        2.49970000      -1.21090000      -1.64950000
H        3.87180000       0.41260000      -0.25210000
H        2.46790000       1.44880000      -0.63440000
H        2.60190000       0.90880000       2.05380000
H        1.54500000      -2.55750000       0.47360000
H        0.40740000      -0.61760000       2.04450000
