16
Properties=species:S:1:pos:R:3 gdb_34160=T pbc="F F F"
C        0.02960000      -1.15860000      -0.00800000
C       -0.01240000       0.04390000       0.00340000
C       -0.07720000       1.47420000       0.02520000
C       -1.09580000       2.27300000       0.89520000
C       -0.83330000       3.42700000      -0.09970000
C        0.68460000       3.69950000      -0.07440000
C        1.22720000       2.31720000       0.00710000
N        0.99740000       2.94260000      -1.33640000
C       -0.42790000       2.40200000      -1.20580000
H        0.07100000      -2.21940000      -0.02150000
H       -2.10370000       1.86080000       0.79090000
H       -0.85450000       2.42350000       1.95080000
H       -1.52260000       4.25420000      -0.24850000
H        1.22400000       4.59550000       0.20640000
H        2.21320000       2.03550000       0.35420000
H       -1.00070000       2.10420000      -2.08040000
