13
Properties=species:S:1:pos:R:3 gdb_1457=T pbc="F F F"
N       -0.14640000       1.35740000      -0.24630000
C       -0.02310000      -0.05580000       0.04820000
C        0.89830000      -0.40160000       1.20940000
O        1.50930000       0.38520000       1.87890000
O        0.93340000      -1.76240000       1.38720000
C        1.71710000      -2.26710000       2.39730000
N        1.74370000      -3.51420000       2.55270000
H       -0.47140000       1.84870000       0.58140000
H        0.77260000       1.74410000      -0.44160000
H       -1.00790000      -0.48520000       0.26840000
H        0.33840000      -0.59760000      -0.83400000
H        2.23720000      -1.49040000       2.95820000
H        2.35870000      -3.75170000       3.32980000
