12
Properties=species:S:1:pos:R:3 gdb_2256=T pbc="F F F"
N       -0.11840000       1.48560000      -0.20150000
C       -0.04820000       0.08610000      -0.02840000
C       -0.37450000      -0.87410000      -1.18640000
C       -1.12940000      -0.97340000       0.08440000
O       -0.33760000      -1.73270000       1.03900000
C        0.63390000      -0.73220000       1.05410000
O        1.57110000      -0.64370000       1.77760000
H       -0.16040000       1.96960000       0.68920000
H        0.68720000       1.83750000      -0.70830000
H       -0.87860000      -0.36860000      -2.00460000
H        0.31340000      -1.66540000      -1.46570000
H       -2.19190000      -0.89830000       0.26140000
