22
Properties=species:S:1:pos:R:3 gdb_76716=T pbc="F F F"
C       -0.00930000       1.56070000       0.72130000
C        0.02240000       0.10500000       0.30320000
C        0.29350000      -0.34820000      -1.09860000
C        0.55250000       0.60620000      -2.24900000
C        1.38450000      -0.04810000      -3.37140000
C        1.48290000       0.84500000      -4.58590000
O        2.50940000       1.22440000      -5.08710000
N        1.25330000      -0.61980000      -0.02400000
C        2.54320000       0.05120000       0.02270000
H        0.63660000       2.20390000       0.12130000
H       -1.03050000       1.94850000       0.64040000
H        0.29760000       1.66520000       1.76780000
H       -0.67130000      -0.50580000       0.88240000
H       -0.21930000      -1.25300000      -1.43160000
H       -0.41730000       0.92220000      -2.65720000
H        1.05410000       1.51850000      -1.91650000
H        2.39390000      -0.29670000      -3.03380000
H        0.89010000      -0.98000000      -3.68280000
H        0.49480000       1.15380000      -5.00480000
H        2.56700000       1.08490000      -0.35030000
H        2.89140000       0.06500000       1.06060000
H        3.26390000      -0.53180000      -0.56000000
