13
Properties=species:S:1:pos:R:3 gdb_130862=T pbc="F F F"
O       -0.05110000      -0.02320000      -0.00080000
C       -0.00430000       1.18170000       0.00870000
C        1.26490000       1.95880000       0.00110000
C        1.24420000       3.31800000       0.01290000
C        2.48900000       4.07610000       0.00520000
O        2.60950000       5.28630000       0.01470000
N        3.61170000       3.23510000      -0.01420000
N        3.66310000       1.89670000      -0.02620000
C        2.52300000       1.27090000      -0.01890000
H       -0.92470000       1.80400000       0.02410000
H        0.31980000       3.88620000       0.02810000
H        4.51240000       3.69720000      -0.02020000
H        2.55470000       0.18890000      -0.02840000
