16
Properties=species:S:1:pos:R:3 gdb_471=T pbc="F F F"
O       -0.28410000       1.44460000       0.30550000
C       -0.00440000       0.07100000       0.02950000
C        0.71080000      -0.60180000       1.21190000
C       -0.42190000      -0.80610000       2.23010000
C       -1.61160000      -1.26920000       1.35920000
C       -1.36240000      -0.65360000      -0.04890000
H        0.55550000       1.89100000       0.45600000
H        0.56370000      -0.01530000      -0.90770000
H        1.11740000      -1.56910000       0.88890000
H        1.54850000      -0.00540000       1.59080000
H       -0.16980000      -1.51640000       3.02200000
H       -0.65410000       0.15300000       2.70290000
H       -1.62750000      -2.36240000       1.29460000
H       -2.57280000      -0.96540000       1.78130000
H       -2.13170000       0.06520000      -0.33990000
H       -1.33380000      -1.43020000      -0.81850000
