23
Properties=species:S:1:pos:R:3 gdb_109682=T pbc="F F F"
C       -0.14230000       1.53890000      -0.30400000
C        0.02670000       0.07240000       0.11440000
C       -1.29570000      -0.66480000       0.16540000
C       -1.81970000      -1.45020000      -1.03190000
O       -1.01050000      -1.63010000      -2.16040000
C       -1.41150000      -2.16980000       0.23020000
C       -0.18890000      -3.05930000       0.25640000
O       -2.47030000      -2.58090000       1.05990000
C       -3.13620000      -3.75500000       0.63670000
H        0.82040000       2.05890000      -0.32660000
H       -0.58910000       1.61990000      -1.30160000
H       -0.79730000       2.07610000       0.39040000
H        0.70360000      -0.42710000      -0.58550000
H        0.51010000       0.02880000       1.09840000
H       -2.07400000      -0.16080000       0.73400000
H       -2.88890000      -1.39250000      -1.23460000
H       -0.97910000      -0.79630000      -2.64170000
H        0.56960000      -2.70640000      -0.44270000
H        0.23840000      -3.08810000       1.26390000
H       -0.44260000      -4.08330000      -0.03510000
H       -4.01020000      -3.87160000       1.28240000
H       -3.47090000      -3.67950000      -0.40770000
H       -2.50960000      -4.65220000       0.73490000
