18
Properties=species:S:1:pos:R:3 gdb_71162=T pbc="F F F"
C       -0.08520000       1.52110000       0.01940000
C        0.08210000       0.03710000       0.09040000
O       -1.15290000      -0.72450000      -0.12280000
C       -0.55960000      -1.75370000       0.67220000
C        0.91730000      -1.88520000       0.26610000
C        0.44830000      -0.88470000       1.32910000
C        1.10410000      -0.77190000      -0.73640000
C        1.40840000      -0.71930000      -2.17350000
N        2.41830000      -0.30760000      -1.15690000
H        0.86560000       2.03070000       0.20630000
H       -0.45000000       1.81360000      -0.97130000
H       -0.81060000       1.86200000       0.76260000
H       -1.17950000      -2.56340000       1.03370000
H        1.50360000      -2.78420000       0.39920000
H        0.75100000      -0.69920000       2.34990000
H        1.66000000      -1.62540000      -2.71770000
H        0.93110000       0.05150000      -2.77410000
H        2.46930000       0.70870000      -1.11870000
