15
Properties=species:S:1:pos:R:3 gdb_29098=T pbc="F F F"
N        0.13240000       1.42250000      -0.19700000
C       -0.01930000       0.04030000      -0.00140000
C       -1.15890000      -0.66140000      -0.13170000
N       -1.12030000      -2.06010000      -0.00090000
C       -0.01820000      -2.79040000       0.34060000
O       -0.02700000      -4.00140000       0.47370000
C        1.25720000      -1.99080000       0.51860000
N        2.37480000      -2.52500000       0.81190000
N        1.15510000      -0.62650000       0.30250000
H        0.47000000       1.89910000       0.63420000
H       -0.72960000       1.85750000      -0.49860000
H       -2.12210000      -0.21130000      -0.31170000
H       -1.96500000      -2.59570000      -0.13670000
H        2.22100000      -3.53080000       0.90430000
H        2.02610000      -0.11600000       0.27240000
