21
Properties=species:S:1:pos:R:3 gdb_36595=T pbc="F F F"
C        0.03140000      -1.22220000      -0.00500000
C       -0.00630000      -0.02060000       0.00220000
C       -0.01830000       1.43670000       0.01110000
C        1.39850000       2.05150000      -0.00120000
C        1.38060000       3.55990000       0.00790000
C        0.77490000       4.50750000       1.09640000
C        1.38390000       5.44640000       0.01890000
C        2.62100000       4.50670000      -0.00190000
C        0.74830000       4.52000000      -1.05420000
H        0.05280000      -2.28340000      -0.01110000
H       -0.58050000       1.80320000      -0.85720000
H       -0.56070000       1.79270000       0.89630000
H        1.95510000       1.68410000       0.86920000
H        1.93530000       1.69440000      -0.88810000
H       -0.31470000       4.51660000       1.19480000
H        1.26310000       4.49970000       2.07570000
H        1.38560000       6.53660000       0.02520000
H        3.24860000       4.49730000       0.89430000
H        3.22630000       4.50780000      -0.91350000
H        1.21210000       4.52380000      -2.04530000
H       -0.34340000       4.53010000      -1.12540000
