22
Properties=species:S:1:pos:R:3 gdb_86392=T pbc="F F F"
C        0.21590000       1.57020000      -0.07810000
C        0.05290000       0.06320000       0.04740000
O        0.64240000      -0.55370000      -1.09910000
C        1.17170000      -1.83680000      -0.76650000
C        2.37910000      -2.10350000      -1.65220000
C        1.45340000      -1.78320000       0.73440000
C        1.62970000      -3.06040000       1.51060000
N        2.22870000      -0.56860000       1.07850000
C        0.75520000      -0.57930000       1.23050000
H        1.27700000       1.82900000      -0.04910000
H       -0.20760000       1.91990000      -1.02360000
H       -0.30090000       2.08250000       0.74020000
H       -1.01910000      -0.19590000       0.10580000
H        0.40450000      -2.61410000      -0.93400000
H        3.16750000      -1.38180000      -1.42590000
H        2.76200000      -3.11670000      -1.49100000
H        2.10350000      -2.00720000      -2.70580000
H        2.54780000      -3.58150000       1.21560000
H        1.68880000      -2.86290000       2.58600000
H        0.79120000      -3.74470000       1.34030000
H        2.65420000      -0.70050000       1.99410000
H        0.31190000      -0.52760000       2.22010000
