17
Properties=species:S:1:pos:R:3 gdb_51909=T pbc="F F F"
O       -0.33120000       0.87450000       1.36860000
C       -0.07730000       1.38910000       0.30600000
N        1.07850000       1.18670000      -0.41180000
C        2.11970000       0.36010000      -0.00310000
N        3.13210000       0.22000000      -0.75180000
C        4.23270000      -0.63110000      -0.32290000
C        3.96330000      -1.59630000       0.80750000
C        4.99790000      -1.95270000       1.78560000
O        3.94680000      -1.05250000       2.13400000
H       -0.75880000       2.08940000      -0.21310000
H        1.20070000       1.65120000      -1.30090000
H        1.94310000      -0.09380000       0.97250000
H        4.56270000      -1.20480000      -1.19960000
H        5.07620000       0.01630000      -0.04840000
H        3.17060000      -2.32390000       0.62240000
H        4.96470000      -2.92450000       2.27560000
H        5.98860000      -1.50650000       1.70730000
