17
Properties=species:S:1:pos:R:3 gdb_67663=T pbc="F F F"
O       -0.04900000       1.38510000       0.04190000
C        0.02380000       0.00610000       0.03960000
C       -0.13420000      -0.81530000      -1.23250000
C        0.70250000      -2.07730000      -1.40680000
C        0.85640000      -2.55770000       0.03450000
O        1.78980000      -1.66840000       0.71840000
C        0.67460000      -0.86340000       1.14410000
C       -0.36610000      -1.95310000       0.82400000
C       -1.12890000      -0.98140000      -0.10430000
H        0.72330000       1.73150000      -0.41940000
H       -0.44930000      -0.23540000      -2.09400000
H        0.16410000      -2.80990000      -2.02120000
H        1.68530000      -1.90290000      -1.85450000
H        1.13160000      -3.60610000       0.16450000
H        0.80600000      -0.38350000       2.11620000
H       -0.87040000      -2.54140000       1.58510000
H       -2.19580000      -0.82140000      -0.17490000
