19
Properties=species:S:1:pos:R:3 gdb_88910=T pbc="F F F"
C       -0.12340000       1.45610000      -0.07350000
C        0.56760000       0.11020000      -0.06730000
C        1.98590000      -0.04080000       0.42320000
C        0.85160000      -0.66910000       1.20080000
C        0.45310000      -0.16540000       2.58050000
C        1.29740000      -0.82840000       3.65810000
O        0.89290000      -1.74390000       4.34140000
C        2.65040000      -0.31340000       3.81640000
C        3.75990000       0.12870000       3.96950000
H        0.19660000       2.08770000       0.76020000
H        0.10560000       2.00060000      -0.99610000
H       -1.21240000       1.34940000      -0.01310000
H        0.30060000      -0.51600000      -0.91510000
H        2.67030000      -0.68730000      -0.11480000
H        2.45730000       0.83560000       0.85710000
H        0.75710000      -1.74790000       1.10780000
H        0.57850000       0.92000000       2.64440000
H       -0.59110000      -0.41340000       2.79480000
H        4.74350000       0.50560000       4.11230000
