15
Properties=species:S:1:pos:R:3 gdb_130350=T pbc="F F F"
N       -0.19280000       1.53210000      -0.06120000
C        0.06350000       0.08810000      -0.00530000
C       -1.28970000      -0.72230000      -0.02670000
O       -1.39230000      -1.49040000      -1.26990000
C       -0.18230000      -1.38190000      -1.84280000
N        0.34100000      -1.91020000      -2.93350000
N        1.57460000      -1.35350000      -2.90310000
N        1.85820000      -0.53400000      -1.88760000
C        0.72410000      -0.54680000      -1.19630000
H        0.68880000       2.03080000       0.02640000
H       -0.55550000       1.77480000      -0.98070000
H        0.59250000      -0.10600000       0.93230000
H       -1.34260000      -1.43630000       0.79910000
H       -2.14440000      -0.04520000       0.02230000
H        2.25800000      -1.57570000      -3.60700000
