21
Properties=species:S:1:pos:R:3 gdb_116031=T pbc="F F F"
C       -0.06890000       1.61790000      -0.12340000
C       -0.00730000       0.08200000      -0.01990000
C        0.71700000      -0.50500000      -1.20990000
C        1.94260000      -1.01470000      -1.11750000
C        2.70450000      -1.02590000       0.17770000
O        2.09130000      -0.23490000       1.17890000
C        0.67690000      -0.43720000       1.25760000
C        0.24980000       0.21470000       2.56740000
O        0.90080000      -0.39080000       3.66720000
H        0.92930000       2.04610000       0.00500000
H       -0.44030000       1.92060000      -1.10760000
H       -0.73400000       2.05180000       0.62920000
H       -1.03700000      -0.30340000      -0.02000000
H        0.19990000      -0.48430000      -2.16630000
H        2.44190000      -1.45010000      -1.97910000
H        2.83240000      -2.06560000       0.53170000
H        3.71130000      -0.61450000       0.03630000
H        0.48020000      -1.51850000       1.34320000
H        0.45810000       1.29420000       2.52770000
H       -0.82750000       0.08320000       2.71460000
H        1.83690000      -0.40290000       3.43300000
