16
Properties=species:S:1:pos:R:3 gdb_30987=T pbc="F F F"
N       -0.12100000       1.32760000      -0.28020000
C       -0.13080000      -0.06290000      -0.15050000
C       -1.15240000      -0.93580000       0.03300000
C       -2.62380000      -0.68710000       0.07710000
O       -3.00870000       0.39460000      -0.77200000
N       -0.56110000      -2.20550000       0.21310000
C        0.81710000      -2.14080000       0.14890000
O        1.63350000      -3.03170000       0.27700000
N        1.05590000      -0.78790000      -0.10910000
H        0.42770000       1.64240000      -1.07450000
H       -1.07250000       1.66580000      -0.37940000
H       -3.16460000      -1.61190000      -0.18220000
H       -2.97150000      -0.39040000       1.07500000
H       -2.72660000       0.16130000      -1.66390000
H       -1.03910000      -3.06260000       0.42610000
H        1.98340000      -0.40120000      -0.09690000
