17
Properties=species:S:1:pos:R:3 gdb_84620=T pbc="F F F"
C        0.15530000       1.43010000      -0.14140000
N       -0.17780000       0.02570000      -0.00430000
C       -0.11430000      -0.87880000      -1.04320000
N       -0.02950000      -2.12350000      -0.73860000
C        0.12990000      -2.18850000       0.68230000
C        1.32110000      -1.52980000       1.30430000
C        0.05360000      -0.70610000       1.21420000
C       -0.73060000      -0.36130000       2.41190000
O       -0.54590000      -0.83760000       3.50810000
H        1.22750000       1.62220000       0.00820000
H       -0.12300000       1.76810000      -1.14300000
H       -0.40430000       2.02860000       0.58300000
H       -0.17000000      -0.51020000      -2.06300000
H       -0.36650000      -2.99410000       1.21060000
H        1.57080000      -1.84420000       2.31090000
H        2.15110000      -1.25300000       0.66270000
H       -1.55400000       0.36350000       2.22070000
