16
Properties=species:S:1:pos:R:3 gdb_123460=T pbc="F F F"
C        0.09900000       1.32780000       0.74330000
C       -0.11420000      -0.03390000       0.11470000
C       -1.36560000      -0.39310000      -0.56120000
O       -0.20290000      -0.04050000      -1.31830000
C        1.42680000       1.91230000       0.37320000
N        2.30120000       2.49180000       1.17920000
C        3.30340000       2.85340000       0.32920000
N        3.11130000       2.53540000      -0.94010000
N        1.89870000       1.93550000      -0.89220000
H       -0.70530000       2.00130000       0.42280000
H        0.05200000       1.25800000       1.83320000
H        0.50440000      -0.83700000       0.51540000
H       -1.66390000      -1.43710000      -0.63330000
H       -2.18080000       0.32810000      -0.59430000
H        4.19800000       3.36170000       0.65640000
H        1.47270000       1.54260000      -1.71770000
