18
Properties=species:S:1:pos:R:3 gdb_109505=T pbc="F F F"
C       -0.06630000       1.58500000       0.16000000
C       -0.02700000       0.08830000      -0.04260000
O       -1.12950000      -0.59290000       0.47960000
C        0.52350000      -0.56550000      -1.26490000
C        1.11160000       0.18630000      -2.44260000
O        2.12020000      -0.56250000      -3.09550000
C        1.30600000      -0.68330000       0.05490000
C        2.55660000       0.00000000       0.18720000
N        3.56650000       0.56360000       0.26220000
H        0.83650000       2.07840000      -0.20320000
H       -0.93500000       2.01050000      -0.35080000
H       -0.15290000       1.81460000       1.22880000
H       -1.22010000      -0.35230000       1.40920000
H        0.02280000      -1.49010000      -1.53510000
H        0.32590000       0.35400000      -3.18670000
H        1.48420000       1.17210000      -2.13550000
H        2.89950000      -0.55830000      -2.52850000
H        1.24930000      -1.64080000       0.56000000
