16
Properties=species:S:1:pos:R:3 gdb_51468=T pbc="F F F"
N       -0.56120000       1.13430000       0.07770000
C       -0.55510000      -0.10560000       0.29850000
O       -1.05180000      -0.95020000      -0.64330000
C       -1.00500000      -2.31100000      -0.33210000
C       -1.84870000      -2.86770000       0.81070000
O       -2.83620000      -2.02380000       1.33110000
C       -3.70470000      -1.64400000       0.26410000
O       -3.45440000      -2.50750000      -0.83360000
C       -2.23660000      -3.15250000      -0.60910000
H       -0.16250000       1.63060000       0.87200000
H       -0.18760000      -0.62290000       1.19240000
H       -0.04550000      -2.79310000      -0.51610000
H       -1.46350000      -3.57640000       1.53350000
H       -4.74520000      -1.76270000       0.58800000
H       -3.50070000      -0.60640000      -0.02430000
H       -2.16220000      -4.10720000      -1.11420000
