18
Properties=species:S:1:pos:R:3 gdb_92793=T pbc="F F F"
C        0.07360000       1.56460000       0.07760000
C        0.06570000       0.03850000       0.03460000
C        0.85420000      -0.57690000      -1.16000000
N        1.46490000      -1.82580000      -0.68330000
C        1.38370000      -1.82830000       0.58040000
C        0.71510000      -0.65800000       1.25240000
O        1.87030000      -2.81080000       1.39530000
C        2.70660000      -3.76580000       0.86070000
O        3.08710000      -4.67590000       1.52610000
H        1.09600000       1.94930000       0.16800000
H       -0.36190000       1.98640000      -0.83430000
H       -0.50360000       1.94500000       0.92640000
H       -0.97180000      -0.30800000      -0.03660000
H        0.21660000      -0.78190000      -2.02540000
H        1.65200000       0.09480000      -1.50630000
H        1.47310000      -0.03160000       1.74160000
H        0.01010000      -0.97010000       2.02730000
H        2.95320000      -3.56430000      -0.18930000
