16
Properties=species:S:1:pos:R:3 gdb_36661=T pbc="F F F"
N       -0.26570000      -0.91880000       0.30140000
C        0.00400000       0.16950000       0.02650000
C        0.32530000       1.54610000      -0.35810000
O        1.04880000       2.15640000       0.69550000
C        1.36260000       3.48990000       0.43360000
C        2.74970000       3.98510000       0.72350000
C        3.74850000       2.92050000       0.27520000
O        3.14860000       2.84880000      -1.05130000
C        2.24270000       3.89310000      -0.71420000
H        0.92180000       1.53300000      -1.27970000
H       -0.61560000       2.07860000      -0.56460000
H        0.56830000       4.20080000       0.66770000
H        2.96080000       4.82940000       1.36500000
H        4.77470000       3.29240000       0.20220000
H        3.72050000       1.95940000       0.79540000
H        2.00440000       4.62990000      -1.47360000
