19
Properties=species:S:1:pos:R:3 gdb_75555=T pbc="F F F"
C        0.00680000       1.51580000       0.06660000
C        0.00620000       0.01720000      -0.02270000
C       -0.05590000      -0.65800000      -1.16920000
C       -0.01310000      -2.15780000      -1.25380000
O        0.33120000      -2.78200000      -0.03280000
C       -0.34600000      -2.21630000       1.06590000
C        0.07990000      -0.74980000       1.29600000
C        1.40810000      -0.64300000       1.90100000
C        2.49860000      -0.55260000       2.39900000
H        0.90330000       1.87110000       0.58840000
H       -0.02130000       1.97720000      -0.92400000
H       -0.85600000       1.88020000       0.63940000
H       -0.14580000      -0.12750000      -2.11470000
H       -0.98590000      -2.53830000      -1.61940000
H        0.74240000      -2.47750000      -1.98130000
H       -1.43720000      -2.24350000       0.91030000
H       -0.10220000      -2.83080000       1.93550000
H       -0.64550000      -0.30390000       1.99360000
H        3.46400000      -0.47890000       2.83470000
