18
Properties=species:S:1:pos:R:3 gdb_12419=T pbc="F F F"
C       -0.01330000       1.53190000      -0.03390000
C        0.04790000       0.01680000       0.02560000
O        0.77910000      -0.43780000      -1.12290000
C        0.85800000      -1.83740000      -1.16600000
O        1.53850000      -2.37300000      -0.05880000
C        0.85940000      -2.05310000       1.15380000
C        0.74990000      -0.52960000       1.28590000
O        2.03260000       0.04710000       1.45300000
H        0.98880000       1.95260000       0.07120000
H       -0.44070000       1.85560000      -0.98630000
H       -0.63630000       1.91710000       0.77910000
H       -0.97170000      -0.40510000      -0.01520000
H       -0.15940000      -2.26990000      -1.22160000
H        1.43280000      -2.10240000      -2.05560000
H       -0.14000000      -2.51850000       1.16710000
H        1.45720000      -2.46880000       1.96780000
H        0.17000000      -0.26990000       2.17870000
H        2.54990000      -0.23280000       0.68730000
