17
Properties=species:S:1:pos:R:3 gdb_117427=T pbc="F F F"
C       -0.03870000       1.42280000      -0.25920000
C       -0.19850000      -0.08420000      -0.30120000
O        0.89810000      -0.61410000      -1.07440000
C        0.90020000      -1.95250000      -1.22600000
O        0.07070000      -2.71180000      -0.77950000
N        2.00650000      -2.33390000      -1.94400000
C        2.14400000      -3.69740000      -2.39950000
C        1.91140000      -3.85020000      -3.84520000
N        1.75310000      -3.95270000      -4.98480000
H        0.90870000       1.70330000       0.20950000
H       -0.06470000       1.84710000      -1.26680000
H       -0.85440000       1.86350000       0.32130000
H       -0.17270000      -0.52720000       0.69910000
H       -1.13980000      -0.38400000      -0.77120000
H        2.55950000      -1.60860000      -2.37150000
H        3.13880000      -4.09300000      -2.16510000
H        1.40720000      -4.28940000      -1.84900000
