19
Properties=species:S:1:pos:R:3 gdb_84077=T pbc="F F F"
C       -0.31550000       1.56840000       0.01920000
C        0.02460000       0.07450000       0.00480000
C        0.83300000      -0.41920000      -1.17770000
C        1.86220000      -1.20810000      -0.84560000
C        2.86960000      -1.84310000      -1.74560000
C        1.88680000      -1.45220000       0.64900000
O        3.16060000      -1.37520000       1.24370000
C        0.95080000      -0.34480000       1.15000000
O        1.06780000       0.17660000       2.23040000
H        0.58780000       2.17370000      -0.10140000
H       -1.00510000       1.81640000      -0.79290000
H       -0.78220000       1.84350000       0.96840000
H       -0.91170000      -0.49890000       0.10340000
H        0.58010000      -0.14110000      -2.19620000
H        2.73440000      -1.53100000      -2.78460000
H        3.88260000      -1.57770000      -1.42450000
H        2.80500000      -2.93780000      -1.70130000
H        1.42370000      -2.43300000       0.87390000
H        3.03680000      -0.87230000       2.06190000
