17
Properties=species:S:1:pos:R:3 gdb_47235=T pbc="F F F"
O        0.00860000       0.00220000       0.35310000
C        0.02050000       1.17610000       0.08650000
O       -1.17300000       1.81140000       0.00880000
C       -1.36890000       3.21790000      -0.22890000
C       -0.82260000       3.73060000      -1.53330000
C        0.44610000       3.61870000      -1.92940000
C        1.55830000       2.99100000      -1.18130000
C        1.76040000       3.22790000       0.29650000
C        1.32930000       1.85930000      -0.17530000
H       -2.45570000       3.32140000      -0.21850000
H       -0.99300000       3.78520000       0.63020000
H       -1.53630000       4.21760000      -2.19040000
H        0.71580000       4.01270000      -2.90590000
H        2.46770000       2.87280000      -1.76030000
H        2.77730000       3.31090000       0.66250000
H        1.05570000       3.86430000       0.81320000
H        2.10580000       1.10450000      -0.15990000
