18
Properties=species:S:1:pos:R:3 gdb_126972=T pbc="F F F"
C       -0.07870000       1.49900000      -0.01570000
C        0.11120000      -0.01280000      -0.03250000
N        0.66270000      -0.47580000       1.23910000
C        0.83130000      -1.82110000       1.44470000
N        0.32730000      -2.75050000       0.67050000
O        0.66750000      -3.94660000       1.27860000
N        1.39230000      -3.73610000       2.41220000
C        1.51170000      -2.44590000       2.54640000
C        2.23520000      -1.80160000       3.67940000
H        0.87680000       2.01950000       0.12030000
H       -0.50520000       1.83770000      -0.96350000
H       -0.74960000       1.80080000       0.79380000
H       -0.84740000      -0.52070000      -0.17620000
H        0.75070000      -0.31390000      -0.87610000
H        1.40810000       0.09680000       1.60880000
H        3.09420000      -1.21960000       3.32470000
H        1.57670000      -1.11730000       4.22530000
H        2.60100000      -2.56180000       4.37140000
