16
Properties=species:S:1:pos:R:3 gdb_123765=T pbc="F F F"
C       -0.07810000       1.17380000      -0.19500000
C        1.43140000       1.46390000      -0.10300000
C        1.48990000       0.16470000       0.73470000
O        0.07320000      -0.07440000       0.51400000
C        2.35160000      -0.95200000       0.24370000
N        2.55420000      -1.19090000      -1.04580000
N        3.34520000      -2.28430000      -1.01460000
C        3.58870000      -2.65230000       0.25990000
N        2.97670000      -1.82950000       1.08650000
H       -0.72580000       1.87330000       0.34870000
H       -0.48200000       1.02450000      -1.20280000
H        1.96580000       1.39650000      -1.05020000
H        1.72060000       2.37460000       0.42290000
H        1.69790000       0.30740000       1.80090000
H        3.66430000      -2.69870000      -1.87520000
H        4.20230000      -3.49990000       0.52560000
