18
Properties=species:S:1:pos:R:3 gdb_74379=T pbc="F F F"
C        0.10270000       1.55840000      -0.30400000
C       -0.03310000       0.07190000      -0.15620000
N       -1.16700000      -0.50140000      -0.17020000
C       -1.23330000      -1.94020000       0.05070000
C        0.01570000      -2.51980000       0.71490000
C        1.23350000      -1.94170000       0.01160000
O        1.18900000      -0.50640000      -0.01330000
C       -2.51120000      -2.23210000       0.83080000
O       -2.61870000      -3.10330000       1.65380000
H        0.69750000       1.79830000      -1.19100000
H       -0.88470000       2.01000000      -0.38790000
H        0.62950000       1.97520000       0.56020000
H       -1.39190000      -2.42670000      -0.92880000
H        0.02830000      -2.24330000       1.77420000
H        0.02420000      -3.61150000       0.66610000
H        2.16600000      -2.19730000       0.52010000
H        1.29750000      -2.30250000      -1.02340000
H       -3.35310000      -1.55860000       0.56160000
