15
Properties=species:S:1:pos:R:3 gdb_520=T pbc="F F F"
C       -0.43880000       1.22650000       0.40580000
C        0.37750000       0.03240000      -0.10060000
N        0.66080000      -1.06460000       0.80870000
C        0.24620000      -1.04180000       1.99370000
O        0.52100000      -2.07410000       2.82400000
C        0.00680000      -1.94970000       4.14210000
H        0.05500000       1.73520000       1.24080000
H       -0.55820000       1.95550000      -0.40140000
H       -1.44070000       0.92810000       0.73310000
H       -0.12460000      -0.40130000      -0.97590000
H        1.34480000       0.39160000      -0.47700000
H       -0.34400000      -0.24310000       2.46240000
H        0.41960000      -1.07310000       4.65720000
H       -1.08870000      -1.88460000       4.14540000
H        0.30980000      -2.85060000       4.67740000
