19
Properties=species:S:1:pos:R:3 gdb_40153=T pbc="F F F"
C        0.09320000       1.47780000      -0.13810000
O        1.22380000       0.59540000      -0.06230000
C       -0.07110000       0.02890000      -0.00240000
C       -0.62400000      -0.77850000       1.17380000
C       -1.45760000      -1.59250000       0.13750000
C       -0.61470000      -0.98380000      -1.01490000
C       -1.17400000      -0.63370000      -2.40360000
O       -0.21150000      -1.47490000      -3.06580000
C        0.38760000      -1.85180000      -1.80900000
H       -0.05680000       2.11890000       0.73010000
H       -0.05490000       1.96090000      -1.10290000
H        0.15710000      -1.37680000       1.65110000
H       -1.17140000      -0.23260000       1.94520000
H       -1.42760000      -2.68040000       0.23020000
H       -2.50260000      -1.27320000       0.09440000
H       -2.20680000      -0.96130000      -2.58440000
H       -1.07860000       0.41830000      -2.70470000
H        1.43230000      -1.52700000      -1.73760000
H        0.32270000      -2.93280000      -1.62850000
