17
Properties=species:S:1:pos:R:3 gdb_52832=T pbc="F F F"
C        0.03710000       1.56370000      -0.14900000
C        0.03350000       0.11190000      -0.05510000
C        0.02910000      -1.09010000       0.01790000
C        0.02100000      -2.54400000       0.08170000
O        0.94040000      -3.14850000      -0.80430000
C        0.11860000      -3.17610000       1.51130000
N       -1.28520000      -3.59480000       1.35390000
C       -1.37460000      -3.21410000       0.02690000
N       -2.16220000      -3.35700000      -0.94940000
H        0.86760000       1.91610000      -0.77050000
H       -0.89280000       1.93490000      -0.59330000
H        0.14300000       2.02530000       0.83880000
H        0.55360000      -3.07870000      -1.68630000
H        0.84390000      -3.99450000       1.53000000
H        0.28950000      -2.48160000       2.33630000
H       -1.73870000      -4.38300000       1.79290000
H       -2.97110000      -3.93590000      -0.71880000
