18
Properties=species:S:1:pos:R:3 gdb_109987=T pbc="F F F"
C       -0.02420000       1.56930000      -0.22460000
O        0.31550000       0.21320000       0.01520000
C        0.80340000      -0.45670000      -1.09580000
C        1.23400000      -1.91630000      -0.81670000
C        0.93490000      -2.48490000       0.55450000
O        0.31830000      -2.40910000      -1.84100000
C       -0.21920000      -1.10390000      -2.09680000
C       -1.63270000      -0.97940000      -1.73180000
N       -2.74800000      -0.85980000      -1.45320000
H        0.83960000       2.13090000      -0.61000000
H       -0.85680000       1.66030000      -0.93380000
H       -0.33010000       1.99250000       0.73360000
H        1.55840000       0.14070000      -1.62450000
H        2.26760000      -2.13150000      -1.11140000
H       -0.08130000      -2.24210000       0.87060000
H        1.04950000      -3.57250000       0.52840000
H        1.63360000      -2.07970000       1.29280000
H       -0.09790000      -0.81210000      -3.14680000
