19
Properties=species:S:1:pos:R:3 gdb_76667=T pbc="F F F"
C       -0.07460000       1.45310000       0.30290000
C        0.09760000      -0.03260000       0.08690000
C        1.44730000      -0.60480000      -0.32420000
O        2.54480000       0.24760000      -0.44880000
C        0.90110000      -0.87950000       1.04700000
O        1.63630000      -0.22790000       2.06860000
C        1.04760000      -0.17090000       3.29540000
C        1.94520000       0.54200000       4.27580000
O       -0.03040000      -0.64430000       3.53250000
H        0.87820000       1.92800000       0.54420000
H       -0.45670000       1.92730000      -0.60630000
H       -0.78190000       1.65480000       1.11380000
H       -0.76850000      -0.54290000      -0.32640000
H        1.46620000      -1.42230000      -1.04070000
H        2.96470000       0.30620000       0.41710000
H        0.55000000      -1.86310000       1.33510000
H        2.17120000       1.54990000       3.91670000
H        1.45140000       0.59380000       5.24520000
H        2.89530000       0.00840000       4.37090000
