15
Properties=species:S:1:pos:R:3 gdb_48487=T pbc="F F F"
O       -0.73740000       0.83980000       0.49610000
C        0.26130000       0.85460000      -0.16720000
C        1.38990000       1.90130000      -0.01940000
C        1.40600000       2.54550000       1.39050000
O        2.32470000       1.73100000       2.09870000
C        3.29830000       1.39590000       1.15050000
O        2.61300000       1.14950000      -0.07050000
C        1.28560000       2.85770000      -1.11350000
C        1.14680000       3.62230000      -2.03060000
H        0.48300000       0.09780000      -0.94680000
H        1.74710000       3.58720000       1.33420000
H        0.42810000       2.48610000       1.86860000
H        4.01930000       2.21970000       1.00910000
H        3.81220000       0.48420000       1.46550000
H        1.03760000       4.30600000      -2.83660000
