17
Properties=species:S:1:pos:R:3 gdb_53912=T pbc="F F F"
N        0.20770000       0.92360000      -0.29480000
C       -0.37070000       0.11570000       0.62880000
O        0.03830000      -0.02870000       1.76090000
C       -1.59280000      -0.71100000       0.14240000
C       -2.24930000      -0.13150000      -1.03040000
N       -2.71600000       0.34950000      -1.97300000
C       -1.17830000      -2.15860000      -0.12030000
C       -0.91820000      -3.06600000       1.05070000
C       -2.13630000      -3.28110000       0.18860000
H        0.98650000       1.49050000      -0.00050000
H       -0.22660000       1.11640000      -1.18210000
H       -2.29750000      -0.69240000       0.98010000
H       -0.54360000      -2.27680000      -0.99280000
H       -0.09570000      -3.76720000       0.97030000
H       -1.04940000      -2.64760000       2.04140000
H       -3.10580000      -3.02120000       0.60080000
H       -2.15560000      -4.12960000      -0.48550000
