17
Properties=species:S:1:pos:R:3 gdb_30875=T pbc="F F F"
C        0.09320000       1.15090000      -0.33030000
O       -0.20540000       0.12170000       0.62130000
C       -1.26460000      -0.64610000       0.31410000
C       -1.36990000      -1.93870000      -0.08140000
N       -0.32400000      -2.82390000      -0.39950000
C       -2.78400000      -2.21200000      -0.19480000
C       -3.41570000      -1.05240000       0.13670000
N       -4.75360000      -0.70410000       0.29050000
O       -2.52780000      -0.08010000       0.44820000
H        1.00480000       1.64190000       0.01670000
H        0.25550000       0.72350000      -1.32700000
H       -0.71950000       1.88380000      -0.37880000
H        0.56250000      -2.46990000      -0.05860000
H       -0.47520000      -3.74380000      -0.00140000
H       -3.24470000      -3.13980000      -0.49450000
H       -5.36770000      -1.27720000      -0.27240000
H       -4.91600000       0.27710000       0.09980000
