14
Properties=species:S:1:pos:R:3 gdb_21223=T pbc="F F F"
C        0.00030000       1.40980000      -0.06660000
N       -0.04940000      -0.02670000       0.13720000
C       -1.23560000      -0.68850000       0.03840000
N       -2.40200000      -0.07680000       0.02050000
O       -3.31460000      -1.18500000      -0.02740000
C       -2.55700000      -2.27990000      -0.05160000
N       -3.18870000      -3.47890000      -0.16120000
N       -1.27180000      -2.06570000      -0.01220000
H        1.01220000       1.76240000       0.14360000
H       -0.28070000       1.70880000      -1.08600000
H       -0.69020000       1.89720000       0.62630000
H        0.74080000      -0.56910000      -0.17330000
H       -4.15400000      -3.50140000       0.12690000
H       -2.63590000      -4.27780000       0.10500000
