16
Properties=species:S:1:pos:R:3 gdb_22887=T pbc="F F F"
O       -0.11530000       1.30450000       0.00280000
N       -0.00500000      -0.08520000      -0.01590000
C       -1.13980000      -0.65990000      -0.01140000
C       -2.53160000      -0.02870000       0.02010000
O       -2.84250000       0.81560000      -1.08260000
C       -3.41820000      -1.24920000       0.09730000
C       -2.73260000      -2.39330000       0.07570000
C       -1.23660000      -2.18580000       0.00300000
O       -0.62000000      -2.85390000      -1.08940000
H        0.80710000       1.58370000       0.01350000
H       -2.62850000       0.62330000       0.89560000
H       -2.80410000       0.27730000      -1.88090000
H       -4.49750000      -1.15300000       0.13830000
H       -3.15600000      -3.39110000       0.09780000
H       -0.72710000      -2.59060000       0.88480000
H       -0.99250000      -2.49430000      -1.90210000
