17
Properties=species:S:1:pos:R:3 gdb_104476=T pbc="F F F"
C        0.18040000       1.10550000      -0.32460000
O       -0.05110000      -0.18400000       0.25800000
C       -1.35180000      -0.64240000       0.17570000
C       -2.37210000      -0.02280000       1.04480000
O       -2.18440000       0.93550000       1.75500000
C       -1.83150000      -1.24070000      -1.19160000
O       -0.99280000      -1.12560000      -2.28120000
C       -1.40720000      -2.15430000      -0.08950000
O       -0.16930000      -2.76650000      -0.27700000
H        1.25150000       1.29320000      -0.22750000
H       -0.09930000       1.10400000      -1.38210000
H       -0.37580000       1.87210000       0.22090000
H       -3.37340000      -0.51030000       0.97680000
H       -2.88460000      -1.13490000      -1.43400000
H       -0.30470000      -1.79810000      -2.15410000
H       -2.12920000      -2.76290000       0.44760000
H        0.49530000      -2.14490000       0.05990000
