21
Properties=species:S:1:pos:R:3 gdb_82571=T pbc="F F F"
C       -0.08270000       1.52380000      -0.03370000
C       -0.02420000       0.03360000       0.22060000
C        1.17640000      -0.81210000      -0.07060000
O        2.39150000      -0.09240000       0.16970000
C        2.09090000      -0.02760000       1.58690000
C        3.05540000      -0.75100000       2.55450000
C        2.86330000       0.42690000       3.54980000
C        2.31900000       1.28270000       2.37210000
C        0.71660000      -0.65330000       1.36140000
H        0.91700000       1.96180000      -0.00500000
H       -0.50430000       1.72270000      -1.02490000
H       -0.70900000       2.03580000       0.70430000
H       -0.94980000      -0.49860000       0.00330000
H        1.22080000      -1.66340000      -0.74040000
H        2.78710000      -1.76010000       2.87780000
H        4.06270000      -0.76790000       2.12930000
H        2.09190000       0.21590000       4.29480000
H        3.75260000       0.79390000       4.06500000
H        3.11230000       1.86960000       1.89930000
H        1.45600000       1.92680000       2.55100000
H        0.24260000      -1.36110000       2.02950000
