21
Properties=species:S:1:pos:R:3 gdb_118455=T pbc="F F F"
C        0.25640000       0.62240000      -0.30320000
O       -0.66860000       0.25530000       0.71050000
C       -1.69310000      -0.61420000       0.28610000
C       -1.23300000      -2.06670000       0.04740000
O       -0.71250000      -2.15550000      -1.25340000
C       -0.54990000      -3.47390000      -1.74530000
C       -0.22340000      -2.49090000       1.13530000
C       -0.71110000      -2.42630000       2.56990000
O        0.89520000      -2.84320000       0.84760000
H        0.93180000       1.35580000       0.14360000
H        0.83090000      -0.23690000      -0.66370000
H       -0.25950000       1.08380000      -1.15830000
H       -2.44500000      -0.59950000       1.08100000
H       -2.16160000      -0.26040000      -0.64430000
H       -2.12090000      -2.72030000       0.14760000
H       -0.25290000      -3.38350000      -2.79280000
H        0.22190000      -4.02200000      -1.19650000
H       -1.49830000      -4.03220000      -1.69510000
H       -1.73660000      -2.79540000       2.67190000
H       -0.03960000      -2.99970000       3.21040000
H       -0.70030000      -1.37810000       2.88850000
