19
Properties=species:S:1:pos:R:3 gdb_111246=T pbc="F F F"
C        0.01800000       1.40390000      -0.16570000
O        0.02020000       0.07140000       0.30320000
C       -1.19740000      -0.58140000       0.14170000
C       -1.58360000      -1.32030000      -1.17210000
C       -0.38920000      -2.02310000      -1.79710000
O        0.49370000      -2.53970000      -0.81030000
C       -0.08250000      -2.83530000       0.45570000
C       -1.32790000      -2.00270000       0.71590000
O       -2.28230000      -2.29890000      -0.34750000
H        0.99860000       1.82730000       0.06110000
H       -0.14790000       1.45930000      -1.25160000
H       -0.75660000       2.00590000       0.33380000
H       -2.03840000       0.04270000       0.47390000
H       -2.23790000      -0.84700000      -1.90920000
H       -0.76700000      -2.82940000      -2.44530000
H        0.19930000      -1.33210000      -2.41270000
H       -0.36400000      -3.89800000       0.51870000
H        0.68960000      -2.63110000       1.20580000
H       -1.74280000      -2.15510000       1.71570000
