18
Properties=species:S:1:pos:R:3 gdb_37913=T pbc="F F F"
C       -0.03890000       1.54300000       0.03160000
C        1.49190000       1.58390000       0.06490000
C        2.01050000       0.84590000       1.24990000
O        1.45900000       0.93000000       2.54860000
C        0.36310000       0.26380000       3.00870000
N       -0.53410000      -0.44950000       2.49250000
C       -0.70630000      -0.82270000       1.10650000
C        0.01530000      -0.02350000       0.02800000
C        1.54250000       0.02700000       0.09920000
H       -0.54110000       2.02030000       0.87800000
H       -0.45900000       1.94070000      -0.89350000
H        2.11380000       2.28330000      -0.48130000
H        3.09110000       0.88540000       1.35230000
H        0.32060000       0.45700000       4.08150000
H       -0.41690000      -1.88010000       1.00910000
H       -1.78660000      -0.80070000       0.90640000
H       -0.30820000      -0.39680000      -0.94870000
H        2.21100000      -0.66380000      -0.40340000
