14
Properties=species:S:1:pos:R:3 gdb_129102=T pbc="F F F"
N       -0.10250000       1.25650000      -0.07890000
C       -0.00100000      -0.00250000       0.01430000
C       -1.23380000      -0.94440000       0.02390000
C       -0.55280000      -2.26790000      -0.04220000
C        0.79370000      -2.14490000      -0.00030000
N        1.16530000      -0.79510000       0.12610000
C        1.26270000      -3.47640000      -0.01150000
N        0.24920000      -4.32440000      -0.06760000
O       -0.91970000      -3.54910000      -0.07330000
H        0.80840000       1.71800000      -0.06700000
H       -1.81320000      -0.79640000       0.94170000
H       -1.89150000      -0.71490000      -0.81880000
H        2.04120000      -0.43730000      -0.22150000
H        2.26680000      -3.87360000       0.00590000
