22
Properties=species:S:1:pos:R:3 gdb_122236=T pbc="F F F"
C        0.14990000       1.52000000       0.25750000
C       -0.08550000       0.03550000      -0.03360000
C        0.79060000      -0.49620000      -1.17280000
C        0.55730000      -1.98330000      -1.46470000
C        1.41780000      -2.52810000      -2.60050000
C        2.84470000      -2.97150000      -2.30610000
C        1.79890000      -4.00140000      -2.61210000
C        1.18540000      -1.91780000      -3.88720000
N        0.98620000      -1.42030000      -4.91310000
H        1.18990000       1.70670000       0.54760000
H       -0.06140000       2.13380000      -0.62480000
H       -0.49110000       1.87340000       1.07100000
H        0.10300000      -0.55150000       0.87550000
H       -1.14210000      -0.12610000      -0.28450000
H        0.59830000       0.08500000      -2.08360000
H        1.84930000      -0.33750000      -0.92740000
H        0.77150000      -2.57650000      -0.56710000
H       -0.49990000      -2.15300000      -1.70430000
H        3.60270000      -2.77100000      -3.05350000
H        3.17800000      -2.85920000      -1.28020000
H        1.40860000      -4.60440000      -1.79980000
H        1.83940000      -4.50390000      -3.57100000
