17
Properties=species:S:1:pos:R:3 gdb_29274=T pbc="F F F"
C        0.35310000       1.49070000      -0.14720000
C        0.06180000       0.02890000      -0.00750000
C       -0.41670000      -0.81410000      -0.96180000
O       -0.55930000      -2.07790000      -0.47710000
C       -0.15580000      -2.05050000       0.82310000
C        0.23210000      -0.79010000       1.16160000
C       -0.21390000      -3.30030000       1.58900000
C       -1.03060000      -4.45340000       1.17800000
O        0.38390000      -4.47370000       1.00710000
H        1.40780000       1.71040000       0.05290000
H        0.12540000       1.84370000      -1.15680000
H       -0.23890000       2.08710000       0.55610000
H       -0.69130000      -0.67540000      -1.99500000
H        0.60130000      -0.47590000       2.12640000
H        0.00270000      -3.16930000       2.64820000
H       -1.42610000      -5.12600000       1.93860000
H       -1.60990000      -4.38630000       0.25940000
