16
Properties=species:S:1:pos:R:3 gdb_27816=T pbc="F F F"
C        0.01840000       1.50180000      -0.00130000
C        0.01860000       0.00360000      -0.06120000
N        0.00400000      -0.61670000      -1.20710000
C        0.00570000      -1.99550000      -1.13430000
C       -0.01070000      -2.68800000      -2.46450000
N        0.02040000      -2.72700000      -0.05350000
C        0.03610000      -2.09660000       1.17610000
O        0.05080000      -2.63900000       2.25480000
N        0.03430000      -0.67590000       1.10650000
H        0.90840000       1.86810000       0.52150000
H        0.00580000       1.89960000      -1.01500000
H       -0.85940000       1.86690000       0.54280000
H        0.86090000      -2.37990000      -3.05140000
H       -0.01030000      -3.76920000      -2.33320000
H       -0.89480000      -2.37760000      -3.03110000
H        0.04570000      -0.19550000       1.99630000
