18
Properties=species:S:1:pos:R:3 gdb_74483=T pbc="F F F"
C        0.03290000       1.51650000      -0.02250000
C       -0.03420000       0.02700000      -0.00670000
C       -1.08670000      -0.79910000      -0.07240000
C       -0.61720000      -2.19360000      -0.01930000
C       -1.31020000      -3.32090000       0.70290000
C       -1.20000000      -3.34120000      -0.80420000
O        0.79490000      -2.13030000       0.08320000
C        1.17730000      -0.80800000       0.09340000
N        2.37200000      -0.39350000       0.17540000
H        0.64490000       1.86400000      -0.86140000
H       -0.96150000       1.96250000      -0.10130000
H        0.51780000       1.88830000       0.88620000
H       -2.13160000      -0.52900000      -0.15230000
H       -0.66930000      -3.99280000       1.26180000
H       -2.27350000      -3.11870000       1.15790000
H       -2.08640000      -3.15320000      -1.39980000
H       -0.48580000      -4.02660000      -1.24570000
H        3.02500000      -1.17570000       0.23410000
