17
Properties=species:S:1:pos:R:3 gdb_50167=T pbc="F F F"
O       -0.11570000       0.12640000       0.79090000
C       -0.01080000       1.02410000      -0.00530000
C        1.19580000       1.93850000      -0.06600000
C        1.03490000       3.24380000      -0.95410000
C        0.72650000       3.94650000       0.37230000
C        0.72490000       4.92880000       1.56890000
C        0.25450000       3.48380000       2.03520000
O       -0.60830000       3.43800000       0.85600000
C        1.40490000       2.85830000       1.20440000
H       -0.79130000       1.21680000      -0.77280000
H        2.08060000       1.33830000      -0.29330000
H        1.98460000       3.55250000      -1.39590000
H        0.24590000       3.25670000      -1.71100000
H        1.69680000       5.29310000       1.90990000
H       -0.05600000       5.68990000       1.59940000
H       -0.18440000       3.20420000       2.99550000
H        2.43450000       2.99130000       1.53630000
