15
Properties=species:S:1:pos:R:3 gdb_47285=T pbc="F F F"
O        0.02360000       0.92570000       1.58430000
C       -0.02590000       1.41600000       0.47550000
C       -1.37650000       1.86500000      -0.08390000
O       -1.43540000       2.01550000      -1.47900000
C       -0.91770000       3.22380000      -1.97350000
C        0.60380000       3.28070000      -2.11730000
O        1.09980000       4.11320000      -2.84760000
C        1.48630000       2.33620000      -1.38130000
C        1.22670000       1.56750000      -0.31250000
H       -2.10290000       1.09700000       0.19590000
H       -1.66530000       2.79390000       0.43590000
H       -1.33330000       3.37600000      -2.97340000
H       -1.23060000       4.08150000      -1.35470000
H        2.50470000       2.37060000      -1.76050000
H        2.04450000       1.00760000       0.13470000
