19
Properties=species:S:1:pos:R:3 gdb_116044=T pbc="F F F"
O       -0.00420000       1.41820000      -0.06700000
C        0.04990000       0.00780000       0.02800000
C       -1.34990000      -0.59350000       0.04450000
O       -1.96810000      -0.18410000      -1.18220000
C       -3.36110000      -0.43790000      -1.19110000
C       -3.69450000      -1.83180000      -0.73730000
C       -2.79820000      -2.60680000      -0.12950000
C       -1.39250000      -2.12370000       0.14130000
O       -0.45910000      -2.75330000      -0.73680000
H       -0.58580000       1.60530000      -0.81330000
H        0.62400000      -0.43790000      -0.79540000
H        0.56450000      -0.23600000       0.96290000
H       -1.90910000      -0.16380000       0.89190000
H       -3.89110000       0.30160000      -0.56280000
H       -3.69790000      -0.27770000      -2.22190000
H       -4.70700000      -2.17790000      -0.92910000
H       -3.03730000      -3.62660000       0.15740000
H       -1.07800000      -2.42380000       1.14790000
H       -0.73790000      -2.52630000      -1.63220000
