21
Properties=species:S:1:pos:R:3 gdb_89276=T pbc="F F F"
C       -0.51990000       1.34350000      -0.17770000
C        0.06870000      -0.04650000      -0.02070000
O        1.26880000      -0.22940000      -0.81330000
C        2.05610000      -0.57090000       0.36820000
C        2.75420000      -1.90520000       0.18920000
C        2.94670000       0.56240000       0.81780000
C        2.44810000       1.20520000       1.87310000
C        1.12440000       0.63990000       2.34090000
C        0.80920000      -0.44030000       1.28890000
H        0.19720000       2.11700000       0.10910000
H       -0.79060000       1.50780000      -1.22550000
H       -1.42670000       1.45500000       0.42730000
H       -0.68320000      -0.79380000      -0.31010000
H        3.48760000      -1.84340000      -0.62230000
H        3.28110000      -2.19540000       1.10430000
H        2.03260000      -2.68660000      -0.06660000
H        3.87900000       0.79780000       0.31590000
H        2.92030000       2.04850000       2.36710000
H        1.20580000       0.21200000       3.34870000
H        0.34790000       1.41220000       2.40450000
H        0.44140000      -1.36840000       1.72850000
