17
Properties=species:S:1:pos:R:3 gdb_108966=T pbc="F F F"
C       -0.12100000       1.33480000       0.05920000
O        0.08570000      -0.08110000       0.01030000
C        0.75610000      -0.58710000       1.03580000
N        1.23130000       0.05400000       2.03610000
C        1.78170000      -0.99430000       2.87370000
C        0.92410000      -2.24370000       3.20100000
C       -0.16170000      -2.40740000       2.15590000
N        0.84950000      -2.02740000       1.05500000
C        1.94020000      -2.24580000       2.08150000
H        0.83750000       1.86080000       0.06580000
H       -0.68970000       1.58340000      -0.83700000
H       -0.67630000       1.60930000       0.96040000
H        2.50820000      -0.70460000       3.62200000
H        0.97280000      -2.71380000       4.17500000
H       -0.45500000      -3.44850000       2.01070000
H       -1.05350000      -1.77220000       2.19180000
H        2.82040000      -2.83660000       1.86120000
