17
Properties=species:S:1:pos:R:3 gdb_124499=T pbc="F F F"
C        0.00800000       1.57900000       0.01110000
C        0.05370000       0.04020000      -0.05640000
C        0.78580000      -0.44520000      -1.32250000
C        0.66430000      -0.53800000       1.17750000
C        0.20760000      -1.36240000       2.16250000
O       -1.01130000      -1.91900000       2.29620000
N        1.22090000      -1.56130000       3.05540000
N        2.25420000      -0.92230000       2.68800000
O        1.94280000      -0.25350000       1.49120000
H        1.01880000       1.99440000       0.06360000
H       -0.48050000       1.98080000      -0.88160000
H       -0.54610000       1.92200000       0.88940000
H       -0.97490000      -0.33780000      -0.08250000
H        1.82650000      -0.10760000      -1.32120000
H        0.78290000      -1.53670000      -1.38920000
H        0.29790000      -0.04510000      -2.21630000
H       -1.00310000      -2.44660000       3.10390000
