17
Properties=species:S:1:pos:R:3 gdb_57821=T pbc="F F F"
C       -0.10510000       1.38630000      -0.31470000
C        0.01370000      -0.10150000       0.07650000
C        0.74480000      -0.29420000       1.40580000
C       -1.37290000      -0.73760000       0.11600000
O       -1.89470000      -1.14920000       1.13090000
C       -2.06260000      -0.82790000      -1.16100000
C       -2.64770000      -0.92610000      -2.21950000
C       -3.29920000      -1.03510000      -3.40580000
C       -3.87800000      -1.13170000      -4.46140000
H        0.89100000       1.82750000      -0.41130000
H       -0.62740000       1.51350000      -1.26680000
H       -0.65030000       1.94500000       0.45320000
H        0.56310000      -0.61100000      -0.72780000
H        0.20400000       0.19530000       2.22020000
H        0.83340000      -1.35310000       1.66180000
H        1.74950000       0.13490000       1.34920000
H       -4.38840000      -1.21740000      -5.38910000
