21
Properties=species:S:1:pos:R:3 gdb_105792=T pbc="F F F"
C       -0.22250000       1.59750000       0.05340000
C        0.09310000       0.10190000       0.11090000
C        1.33080000      -0.66830000      -0.29670000
C        2.70580000      -0.13640000       0.18550000
C        2.66580000       1.14200000       0.97390000
C        2.20640000      -0.13750000       1.62250000
C        0.83730000      -0.71070000       1.15010000
C        0.21400000      -1.85410000       1.89140000
O       -0.34590000      -1.46240000       3.14120000
H        0.37430000       2.11940000      -0.69980000
H       -1.27390000       1.73800000      -0.21660000
H       -0.06960000       2.09550000       1.01430000
H       -0.76710000      -0.48590000      -0.21300000
H        1.26550000      -1.46280000      -1.03140000
H        3.63230000      -0.54320000      -0.19860000
H        3.64550000       1.46080000       1.32100000
H        2.01110000       1.96680000       0.73640000
H        2.69410000      -0.53390000       2.50390000
H       -0.53590000      -2.34450000       1.24890000
H        0.97000000      -2.60780000       2.14200000
H       -0.95600000      -0.73880000       2.96320000
