14
Properties=species:S:1:pos:R:3 gdb_9454=T pbc="F F F"
O        0.16240000       1.51840000       0.23790000
C        0.01000000       0.13070000       0.05590000
C       -1.48390000      -0.29790000      -0.11200000
C       -1.14650000      -1.08090000      -1.41680000
C        0.21400000      -0.37710000      -1.42110000
O        1.04620000      -0.13420000      -2.24050000
C        0.76520000      -0.66940000       1.01100000
C        1.42340000      -1.33250000       1.76880000
H        1.10230000       1.72290000       0.16390000
H       -1.90460000      -0.87150000       0.71210000
H       -2.09060000       0.58920000      -0.30030000
H       -1.03650000      -2.15810000      -1.25710000
H       -1.77380000      -0.91840000      -2.29550000
H        1.99900000      -1.91420000       2.44630000
