19
Properties=species:S:1:pos:R:3 gdb_43356=T pbc="F F F"
O       -0.00900000      -0.03150000      -0.03770000
C       -0.04530000       1.17780000      -0.03070000
C       -1.25530000       2.03620000      -0.07320000
C       -0.91430000       3.32960000      -0.01680000
C        0.57440000       3.55140000       0.07750000
C        1.07220000       4.19280000       1.40390000
C        2.35810000       3.41400000       1.73060000
C        2.01230000       1.96620000       1.34100000
C        1.16910000       2.11540000       0.04970000
H       -2.25580000       1.62480000      -0.12160000
H       -1.61570000       4.15870000      -0.01840000
H        0.92130000       4.15350000      -0.77060000
H        1.22680000       5.27170000       1.31860000
H        0.33180000       4.03040000       2.19600000
H        3.18410000       3.78210000       1.10920000
H        2.66620000       3.51660000       2.77540000
H        2.89020000       1.33330000       1.19540000
H        1.41060000       1.50000000       2.12960000
H        1.79060000       1.94820000      -0.83510000
