18
Properties=species:S:1:pos:R:3 gdb_72411=T pbc="F F F"
C       -0.06620000       1.45510000       0.07820000
C        0.02950000      -0.03930000      -0.04870000
C        0.72200000      -0.71500000      -1.24080000
C        0.35830000      -2.10990000      -0.68730000
C        0.95500000      -1.97380000       0.73420000
O        0.67750000      -0.59950000       1.07700000
C       -1.13420000      -1.92410000      -0.51150000
N       -2.04330000      -2.78350000      -0.66330000
O       -1.30900000      -0.61510000      -0.12280000
H        0.93600000       1.88830000       0.11070000
H       -0.61280000       1.87130000      -0.77050000
H       -0.59140000       1.71470000       1.00030000
H        0.25520000      -0.48240000      -2.19920000
H        1.79440000      -0.51240000      -1.27380000
H        0.64240000      -3.00230000      -1.23780000
H        0.48380000      -2.63830000       1.46400000
H        2.03870000      -2.14210000       0.73820000
H       -2.95780000      -2.37800000      -0.45300000
