21
Properties=species:S:1:pos:R:3 gdb_101661=T pbc="F F F"
C       -0.01820000       1.56630000       0.12310000
C       -0.11020000       0.04760000      -0.04420000
C        0.74820000      -0.47460000      -1.19770000
O        2.08680000      -0.09400000      -0.93950000
C        0.62640000      -2.00180000      -1.35400000
C        1.27630000      -2.51820000      -2.65340000
O        2.62400000      -2.11890000      -2.77790000
C        1.19000000      -4.02820000      -2.71790000
O        2.18070000      -4.71520000      -2.78980000
H        1.01770000       1.86960000       0.28990000
H       -0.38010000       2.08450000      -0.77220000
H       -0.62070000       1.90520000       0.97140000
H        0.21660000      -0.44910000       0.87820000
H       -1.15160000      -0.25080000      -0.21800000
H        0.38970000      -0.00750000      -2.13540000
H        2.64310000      -0.57590000      -1.56690000
H        1.10310000      -2.47900000      -0.48900000
H       -0.43220000      -2.29090000      -1.35870000
H        0.70200000      -2.11890000      -3.50740000
H        3.14440000      -2.93960000      -2.77680000
H        0.17360000      -4.46830000      -2.67720000
