20
Properties=species:S:1:pos:R:3 gdb_40015=T pbc="F F F"
C        0.06590000       1.54650000       0.01550000
C        1.35190000       0.77080000      -0.02020000
C        0.01890000       0.03560000      -0.01650000
C       -0.44320000      -0.66990000       1.24890000
N       -0.21220000      -2.12900000       1.22890000
C       -1.39480000      -2.96810000       1.02230000
C       -0.39160000      -2.79240000      -0.06760000
C       -0.64620000      -1.96580000      -1.27230000
C       -0.40650000      -0.65330000      -1.26060000
H       -0.21190000       2.03790000       0.94270000
H       -0.24020000       2.08050000      -0.87840000
H        1.92770000       0.76970000      -0.93900000
H        1.95040000       0.72080000       0.88320000
H        0.08050000      -0.26040000       2.12110000
H       -1.51240000      -0.45480000       1.38850000
H       -1.42730000      -3.89100000       1.59620000
H       -2.35410000      -2.46800000       0.89960000
H        0.30770000      -3.61370000      -0.23130000
H       -0.95210000      -2.47570000      -2.18180000
H       -0.51680000      -0.05700000      -2.16320000
