17
Properties=species:S:1:pos:R:3 gdb_28726=T pbc="F F F"
N        0.24170000       1.33750000      -0.06090000
C       -0.00510000      -0.04590000      -0.01320000
C       -1.15370000      -0.78070000       0.18950000
C       -0.77460000      -2.15430000       0.22740000
C        0.58640000      -2.22520000       0.04600000
C        1.52700000      -3.38590000      -0.05240000
C        2.09240000      -3.42890000      -1.46320000
O        3.20260000      -3.06420000      -1.75890000
N        1.04280000      -0.92560000      -0.10060000
H        0.55170000       1.64810000      -0.97720000
H       -0.59350000       1.85700000       0.17820000
H       -2.14970000      -0.37750000       0.29070000
H       -1.43080000      -3.00050000       0.36560000
H        2.36210000      -3.31270000       0.65410000
H        0.96960000      -4.30600000       0.14970000
H        1.36660000      -3.76610000      -2.23670000
H        2.00850000      -0.65630000      -0.18990000
