19
Properties=species:S:1:pos:R:3 gdb_102782=T pbc="F F F"
C        0.72930000       1.86050000      -0.32820000
C        0.85840000       0.33750000      -0.26290000
C        0.71530000      -0.22050000       1.14390000
O       -0.62870000       0.10970000       1.60020000
C       -0.84610000       0.31590000       2.89790000
N        0.00680000       0.11120000       3.81710000
C        0.90350000      -1.75720000       1.17410000
N        1.09030000      -2.25980000       2.42030000
O        0.90450000      -2.42710000       0.15940000
H        1.49490000       2.35490000       0.28060000
H        0.84480000       2.21310000      -1.35710000
H       -0.24950000       2.18990000       0.03140000
H        0.11720000      -0.14980000      -0.90280000
H        1.83570000       0.01780000      -0.63920000
H        1.42070000       0.24780000       1.83810000
H       -1.86720000       0.68330000       3.03610000
H       -0.37860000       0.35850000       4.72470000
H        0.96230000      -1.66270000       3.22880000
H        1.13270000      -3.26090000       2.52300000
