19
Properties=species:S:1:pos:R:3 gdb_41257=T pbc="F F F"
C       -0.03940000       1.47250000      -0.08430000
C        1.50940000       1.57840000       0.05190000
C        2.07000000       1.44730000       1.50250000
C        1.68640000      -0.03170000       1.45200000
C        1.95260000      -1.35620000       2.14330000
O        0.61830000      -1.80680000       1.77250000
C        0.19350000      -0.45070000       1.48020000
C        0.01830000      -0.08330000       0.00760000
C        1.58260000       0.01940000      -0.11250000
H       -0.65710000       1.99830000       0.65270000
H       -0.35240000       1.78810000      -1.08300000
H        2.00790000       2.28620000      -0.60990000
H        3.15580000       1.59510000       1.49720000
H        1.63360000       2.06340000       2.29560000
H        2.73800000      -2.00170000       1.73380000
H        2.06200000      -1.29830000       3.23680000
H       -0.53910000      -0.09170000       2.21390000
H       -0.64360000      -0.67200000      -0.62860000
H        2.23720000      -0.52030000      -0.79300000
