18
Properties=species:S:1:pos:R:3 gdb_78794=T pbc="F F F"
C        0.01270000       1.57490000       0.06860000
C        0.08080000       0.06030000       0.06150000
N        1.12430000      -0.58460000      -0.83710000
C        2.39620000      -0.60520000      -0.03950000
C        1.32020000      -1.64870000       0.15050000
C        0.66410000      -0.72060000       1.26090000
C       -0.09290000      -1.08020000       2.50720000
C        2.09110000      -0.12670000       1.34720000
O        2.74770000       0.29900000       2.25610000
H        0.96180000       2.02640000       0.37310000
H       -0.23800000       1.94620000      -0.92980000
H       -0.76230000       1.91910000       0.76150000
H       -0.87640000      -0.36810000      -0.25460000
H        3.32970000      -0.66440000      -0.58140000
H        1.35240000      -2.71270000      -0.03880000
H        0.51620000      -1.69550000       3.17650000
H       -0.36590000      -0.17380000       3.05800000
H       -1.01320000      -1.62620000       2.27630000
