17
Properties=species:S:1:pos:R:3 gdb_51524=T pbc="F F F"
O       -0.30050000       0.37050000       0.85400000
C        0.24230000       0.80760000      -0.12840000
C        1.43360000       1.74500000      -0.10120000
C        1.18570000       3.00830000      -0.92210000
C        2.39850000       3.90330000      -1.24870000
C        2.05680000       3.59150000      -2.73260000
O        0.97300000       2.71340000      -2.32580000
C        1.61850000       4.70830000      -3.55290000
C        1.26680000       5.63890000      -4.22740000
H       -0.10770000       0.54350000      -1.14930000
H        1.66060000       1.99800000       0.93930000
H        2.29300000       1.21270000      -0.53210000
H        0.32860000       3.55920000      -0.51330000
H        2.31060000       4.95060000      -0.96330000
H        3.36120000       3.50870000      -0.91960000
H        2.82900000       3.02330000      -3.26520000
H        0.95290000       6.45650000      -4.82850000
