15
Properties=species:S:1:pos:R:3 gdb_21116=T pbc="F F F"
C       -0.03940000       1.44550000      -0.02500000
N       -0.01420000      -0.00660000      -0.03270000
C        0.56790000      -0.62160000       0.93830000
C        0.61730000      -2.07310000       0.97250000
C        1.22940000      -2.70560000       1.99490000
N        1.80990000      -1.99090000       3.00940000
N        1.81860000      -0.64870000       3.06890000
C        1.23760000      -0.01000000       2.10000000
H        0.96680000       1.89300000      -0.05100000
H       -0.57310000       1.79580000      -0.91290000
H       -0.55740000       1.86260000       0.85320000
H        0.15570000      -2.62840000       0.16630000
H        1.30390000      -3.78290000       2.08500000
H        2.27120000      -2.44400000       3.77950000
H        1.27330000       1.06910000       2.19580000
