16
Properties=species:S:1:pos:R:3 gdb_49389=T pbc="F F F"
O       -0.14890000      -0.05000000       0.06290000
C       -0.07380000       1.15020000       0.12550000
C        1.21400000       1.94400000       0.15300000
C        1.56800000       2.99130000       1.11780000
C        1.25180000       2.56630000       2.55620000
O        0.11910000       1.66690000       2.69070000
C        1.01060000       0.50810000       2.77960000
C        2.20000000       1.38360000       2.38040000
N        2.45910000       1.74440000       0.91820000
H       -0.97250000       1.79630000       0.03050000
H        1.47560000       2.20430000      -0.87690000
H        1.91110000       3.98030000       0.82980000
H        1.30050000       3.32300000       3.34060000
H        1.07830000       0.16020000       3.81760000
H        0.70850000      -0.30680000       2.12220000
H        3.15290000       1.26800000       2.89220000
