20
Properties=species:S:1:pos:R:3 gdb_68063=T pbc="F F F"
C       -0.10550000       1.45230000       0.19050000
C        0.00930000      -0.04020000       0.11220000
C        0.34620000      -0.94780000      -1.11690000
C       -0.00510000      -1.91000000       0.06110000
C       -0.14090000      -3.40390000       0.06330000
C        0.87400000      -1.00820000       0.97570000
N       -1.14900000      -0.97200000       0.41640000
C       -2.38400000      -0.92520000      -0.16980000
O       -2.96830000       0.08590000      -0.50470000
H        0.84930000       1.91690000      -0.07630000
H       -0.88290000       1.81070000      -0.48720000
H       -0.36800000       1.76380000       1.20620000
H       -0.36350000      -0.91440000      -1.94630000
H        1.38430000      -0.94700000      -1.46230000
H        0.82480000      -3.86550000      -0.16550000
H       -0.46840000      -3.76300000       1.04390000
H       -0.86120000      -3.74260000      -0.68800000
H        1.94680000      -1.01290000       0.77370000
H        0.64100000      -1.03630000       2.04150000
H       -2.85420000      -1.92970000      -0.22210000
