16
Properties=species:S:1:pos:R:3 gdb_5263=T pbc="F F F"
C       -0.20130000       1.41530000      -0.38920000
O       -0.26230000       0.01730000      -0.53350000
C       -0.99740000      -0.60790000       0.49410000
C       -1.00740000      -2.08380000       0.25950000
C       -0.41340000      -2.75080000      -0.76460000
O       -0.63150000      -4.09070000      -0.65640000
C       -1.37990000      -4.27840000       0.46010000
C       -1.64290000      -3.09140000       1.06400000
H        0.38370000       1.80480000      -1.22560000
H       -1.20320000       1.87300000      -0.41200000
H        0.28740000       1.70830000       0.55380000
H       -0.55340000      -0.37700000       1.47950000
H       -2.03000000      -0.21480000       0.52200000
H        0.17140000      -2.42710000      -1.60720000
H       -1.63960000      -5.29940000       0.68590000
H       -2.21520000      -2.94330000       1.96700000
