18
Properties=species:S:1:pos:R:3 gdb_9725=T pbc="F F F"
C        0.21500000       1.35400000      -0.00520000
C       -0.13530000      -0.14900000      -0.01990000
C        0.57140000      -0.87110000      -1.21670000
C        1.80720000      -1.54690000      -0.56910000
O        1.88090000      -1.06230000       0.76720000
C        0.54690000      -0.85900000       1.18340000
C       -1.58090000      -0.33860000      -0.01680000
C       -2.77370000      -0.49110000       0.00340000
H        1.29990000       1.47700000       0.06310000
H       -0.13810000       1.84450000      -0.91640000
H       -0.24830000       1.85240000       0.85110000
H       -0.09080000      -1.60800000      -1.67380000
H        0.85020000      -0.14980000      -1.98830000
H        1.69230000      -2.64140000      -0.56950000
H        2.75070000      -1.30230000      -1.06350000
H        0.55720000      -0.25140000       2.09140000
H        0.04060000      -1.81370000       1.39610000
H       -3.82670000      -0.62660000       0.01800000
