21
Properties=species:S:1:pos:R:3 gdb_70752=T pbc="F F F"
C        0.10090000       1.52200000      -0.06990000
C       -0.03340000       0.02170000       0.03400000
C       -1.32370000      -0.56770000      -0.52840000
O       -2.37290000      -0.55380000       0.42530000
C       -2.42410000      -1.69600000       1.26420000
C       -1.29570000      -1.81990000       2.29720000
C        0.10470000      -2.00760000       1.68570000
C        0.65430000      -0.71730000       1.10220000
O        1.16420000      -0.73020000      -0.23810000
H        1.01190000       1.87130000       0.42220000
H        0.13680000       1.83330000      -1.12000000
H       -0.76240000       2.00860000       0.39620000
H       -1.67140000       0.03350000      -1.37590000
H       -1.12980000      -1.58520000      -0.89400000
H       -3.38560000      -1.62820000       1.78360000
H       -2.44570000      -2.60810000       0.64310000
H       -1.30510000      -0.93760000       2.94920000
H       -1.53510000      -2.68210000       2.93260000
H        0.79660000      -2.37990000       2.44890000
H        0.07310000      -2.76870000       0.89830000
H        1.25980000      -0.12290000       1.78960000
