19
Properties=species:S:1:pos:R:3 gdb_114133=T pbc="F F F"
C       -0.22170000       1.27010000       0.05620000
O        0.21350000      -0.05770000      -0.13790000
C        0.77230000      -0.62760000       1.00530000
C       -0.16210000      -1.10160000       2.18890000
C        0.43970000      -2.50250000       2.00270000
C        0.65070000      -3.59590000       3.00010000
O       -0.57740000      -4.16960000       3.41940000
O        0.08290000      -2.89950000       0.66600000
C        1.23820000      -2.07350000       0.83500000
H        0.60700000       1.92930000       0.36020000
H       -0.62230000       1.62230000      -0.89690000
H       -1.01180000       1.33620000       0.81900000
H        1.59030000      -0.00370000       1.40070000
H        0.07070000      -0.62460000       3.14330000
H       -1.23410000      -1.05180000       1.99110000
H        1.32680000      -4.34800000       2.56660000
H        1.12260000      -3.19620000       3.90380000
H       -1.01220000      -4.50880000       2.62900000
H        2.17420000      -2.44160000       0.42940000
