16
Properties=species:S:1:pos:R:3 gdb_50953=T pbc="F F F"
O       -0.02990000       0.19030000      -0.88030000
C        0.00780000       1.24900000      -0.29410000
N        1.12780000       1.81060000       0.24380000
C        2.42960000       1.16080000       0.19260000
C        3.46170000       1.99340000      -0.62400000
C        3.04080000       2.23160000      -1.99630000
C        2.68120000       2.41760000      -3.12730000
C        2.94810000       0.90000000       1.53650000
C        3.39680000       0.72640000       2.63750000
H       -0.88310000       1.88640000      -0.13260000
H        1.03880000       2.66760000       0.76720000
H        2.25090000       0.21550000      -0.32970000
H        3.63290000       2.94530000      -0.10610000
H        4.41750000       1.45780000      -0.60440000
H        2.36640000       2.57660000      -4.12890000
H        3.78250000       0.54750000       3.61100000
