14
Properties=species:S:1:pos:R:3 gdb_127615=T pbc="F F F"
C       -0.01750000       1.45180000      -0.07770000
N       -0.00740000       0.00890000       0.02090000
N       -0.03800000      -0.75150000      -1.10080000
C       -0.01990000      -2.03390000      -0.72640000
C        0.02350000      -2.08930000       0.67840000
C        0.03050000      -0.78430000       1.12520000
C        0.07440000      -0.90240000       2.53810000
N        0.09170000      -2.16930000       2.89060000
O        0.05980000      -2.94470000       1.71620000
H        0.88650000       1.87970000       0.36750000
H       -0.05220000       1.70230000      -1.13730000
H       -0.89570000       1.87100000       0.42370000
H       -0.03860000      -2.81640000      -1.46700000
H        0.09430000      -0.15250000       3.31500000
