18
Properties=species:S:1:pos:R:3 gdb_74437=T pbc="F F F"
C        0.04500000       1.48730000       0.05050000
C       -0.06080000      -0.00140000      -0.04340000
C       -0.04000000      -0.77610000      -1.13870000
C        0.04060000      -2.22460000      -0.72470000
O       -0.28620000      -3.20790000      -1.65620000
C        1.42240000      -2.40830000      -0.02520000
N        0.85500000      -2.06310000       1.31100000
C       -0.12760000      -0.88190000       1.15740000
C       -0.51360000      -2.24500000       0.74720000
H        0.96240000       1.78670000       0.57220000
H        0.05110000       1.95060000      -0.93950000
H       -0.79110000       1.91110000       0.62080000
H        0.13320000      -0.45070000      -2.15880000
H       -1.10610000      -2.94910000      -2.09070000
H        1.69560000      -3.46580000       0.00610000
H        2.26450000      -1.80110000      -0.37220000
H       -0.38800000      -0.48430000       2.13180000
H       -1.26880000      -2.89030000       1.18640000
