17
Properties=species:S:1:pos:R:3 gdb_1727=T pbc="F F F"
O        0.00190000       1.29040000      -0.29920000
C       -0.05900000      -0.12250000      -0.11240000
C       -1.52430000      -0.46290000       0.12940000
O       -1.99470000       0.26160000       1.24210000
C       -2.39000000      -0.41970000      -1.17010000
C       -2.25520000      -1.96430000      -1.26640000
C       -1.79000000      -1.98350000       0.21630000
H        0.91970000       1.57010000      -0.24590000
H        0.32730000      -0.65900000      -0.99150000
H        0.52570000      -0.42960000       0.76720000
H       -1.63520000       1.15350000       1.14720000
H       -3.40830000      -0.11250000      -0.92080000
H       -2.02290000       0.18760000      -2.00060000
H       -3.15850000      -2.52770000      -1.50770000
H       -1.46490000      -2.27410000      -1.95540000
H       -0.94910000      -2.62850000       0.48880000
H       -2.61600000      -2.17010000       0.90660000
