17
Properties=species:S:1:pos:R:3 gdb_55072=T pbc="F F F"
N        0.04870000       0.26810000       2.36190000
C        0.04430000      -0.36850000       1.16060000
O        1.03550000      -0.39120000       0.43850000
C       -1.23690000      -1.03910000       0.79320000
C       -1.60090000      -1.07200000      -0.68840000
C       -1.16160000      -2.33130000      -0.02460000
N        0.10220000      -2.92030000      -0.32090000
C        0.28090000      -4.26670000      -0.33210000
O       -0.59260000      -5.09500000      -0.16900000
H        0.89620000       0.72400000       2.65780000
H       -0.75650000       0.29870000       2.96110000
H       -2.04910000      -0.96540000       1.50900000
H       -2.64540000      -0.95360000      -0.95270000
H       -0.89020000      -0.58600000      -1.34770000
H       -1.90130000      -3.09000000       0.19730000
H        0.89330000      -2.29030000      -0.36990000
H        1.33860000      -4.53330000      -0.52270000
