16
Properties=species:S:1:pos:R:3 gdb_18271=T pbc="F F F"
C        0.09650000       1.30980000       0.15220000
O        0.03770000      -0.10010000       0.01520000
C        0.60900000      -0.57420000      -1.15220000
O        2.01690000      -0.33890000      -1.15970000
C        2.71530000      -1.44990000      -1.70930000
C        1.76020000      -2.62080000      -1.62130000
O        1.22570000      -2.79130000      -0.30730000
C        0.44860000      -2.07720000      -1.26960000
H        1.13020000       1.65920000       0.24990000
H       -0.36940000       1.81310000      -0.70880000
H       -0.46030000       1.56290000       1.05650000
H        0.15390000      -0.07220000      -2.02900000
H        2.98960000      -1.26930000      -2.76050000
H        3.63280000      -1.59980000      -1.13020000
H        1.90780000      -3.52010000      -2.21240000
H       -0.50370000      -2.51280000      -1.55580000
