16
Properties=species:S:1:pos:R:3 gdb_44185=T pbc="F F F"
O        0.19440000       0.07100000      -0.73560000
C        0.04980000       1.14640000      -0.23910000
C       -1.14660000       1.97310000       0.28060000
N       -0.20890000       3.05900000       0.70470000
C        0.32860000       2.83030000       2.10340000
C        1.65830000       2.24310000       1.52870000
C        0.98680000       2.30960000       0.14140000
C        0.43140000       4.02590000       2.91770000
C        0.54140000       5.00670000       3.60370000
H       -1.81840000       2.30150000      -0.52050000
H       -1.74920000       1.52250000       1.07690000
H       -0.25770000       2.07530000       2.64320000
H        2.49940000       2.92960000       1.62580000
H        1.95170000       1.25700000       1.89160000
H        1.54630000       2.75980000      -0.68270000
H        0.62930000       5.87730000       4.20550000
