19
Properties=species:S:1:pos:R:3 gdb_90773=T pbc="F F F"
C        0.32650000       1.57100000       0.17240000
C        0.16820000       0.07130000       0.07270000
O        1.09330000      -0.56130000      -0.86150000
C        1.40220000      -1.60420000       0.08440000
C        0.67830000      -0.84450000       1.21470000
O        1.67420000      -0.29360000       2.05590000
C        2.94710000      -0.40370000       1.41860000
C        2.86910000      -1.62850000       0.49500000
O        3.05970000      -2.85940000       1.17490000
H        1.30350000       1.84610000       0.57460000
H        0.21030000       2.02570000      -0.81630000
H       -0.44320000       1.98570000       0.83160000
H       -0.86350000      -0.18800000      -0.20710000
H        1.03330000      -2.58800000      -0.21860000
H       -0.06880000      -1.33850000       1.83700000
H        3.17350000       0.49410000       0.82710000
H        3.70730000      -0.50590000       2.20040000
H        3.53550000      -1.52790000      -0.37250000
H        3.91320000      -2.83370000       1.61740000
