20
Properties=species:S:1:pos:R:3 gdb_22392=T pbc="F F F"
C        0.00680000       1.50040000      -0.08190000
C        0.00820000      -0.00330000      -0.01570000
C        0.00160000      -0.69660000       1.32260000
C        1.20850000      -0.35270000       2.19080000
C        1.44820000      -1.20900000       3.45500000
C        2.81470000      -1.51270000       2.80900000
O        2.45860000      -0.79180000       1.61140000
N        0.01250000      -0.77050000      -1.03830000
O        0.02840000      -0.04400000      -2.24100000
H        1.02200000       1.87860000      -0.24960000
H       -0.60590000       1.84420000      -0.91780000
H       -0.36610000       1.93720000       0.84810000
H       -0.90130000      -0.40640000       1.88090000
H       -0.03370000      -1.77690000       1.15660000
H        1.23860000       0.72870000       2.38830000
H        1.46740000      -0.67440000       4.40570000
H        0.78310000      -2.07110000       3.53930000
H        3.67670000      -1.06040000       3.31630000
H        3.03870000      -2.56540000       2.60240000
H        0.00480000      -0.74730000      -2.89800000
