18
Properties=species:S:1:pos:R:3 gdb_124632=T pbc="F F F"
C       -0.16130000       1.51120000       0.01580000
C        0.03160000      -0.01330000       0.04210000
C        0.74750000      -0.47470000       1.31220000
N       -1.22400000      -0.75630000      -0.08340000
C       -1.94160000      -0.71800000      -1.25680000
C       -1.59840000      -0.46760000      -2.55310000
O       -2.69850000      -0.64450000      -3.31250000
N       -3.73520000      -1.00460000      -2.45280000
N       -3.28380000      -1.04020000      -1.27060000
H        0.80490000       2.02560000       0.02930000
H       -0.70210000       1.82670000      -0.88090000
H       -0.73280000       1.84140000       0.89050000
H        0.64720000      -0.30400000      -0.81950000
H        0.15510000      -0.22790000       2.20170000
H        0.90790000      -1.55570000       1.29830000
H        1.71530000       0.02420000       1.41210000
H       -1.82270000      -0.71370000       0.73100000
H       -0.69480000      -0.17970000      -3.05920000
