18
Properties=species:S:1:pos:R:3 gdb_47505=T pbc="F F F"
O        0.18890000       0.62950000      -1.18890000
C        0.01140000       1.32070000      -0.21620000
C       -1.34090000       1.97950000       0.07020000
N       -1.27540000       2.76730000       1.29430000
C       -0.22330000       3.77730000       1.21470000
C        1.14010000       3.08460000       1.19890000
C        2.36000000       3.87300000       0.99070000
O        2.01690000       3.37980000       2.29060000
C        1.08420000       1.60820000       0.82230000
H       -1.61000000       2.56070000      -0.83190000
H       -2.08760000       1.18470000       0.17310000
H       -2.17070000       3.19800000       1.49040000
H       -0.31820000       4.41490000       0.31480000
H       -0.26830000       4.42730000       2.09220000
H        3.23140000       3.41200000       0.52710000
H        2.29180000       4.95430000       0.87000000
H        0.79810000       1.05800000       1.72910000
H        2.04680000       1.22910000       0.47630000
