20
Properties=species:S:1:pos:R:3 gdb_70576=T pbc="F F F"
C        0.00690000       1.50700000      -0.01980000
C        0.02230000      -0.00590000       0.02290000
N       -0.83770000      -0.71050000       0.98890000
C        0.63010000      -0.71910000       1.18050000
C        1.35060000      -2.04180000       0.95010000
C        2.12410000      -2.05960000      -0.38320000
C        1.24800000      -1.64260000      -1.54640000
O       -0.12530000      -2.03910000      -1.47070000
C        0.17560000      -0.65310000      -1.33460000
H        0.88510000       1.90100000      -0.54430000
H       -0.88330000       1.87650000      -0.54290000
H        0.00590000       1.92600000       0.99120000
H       -1.26330000      -0.02950000       1.61460000
H        1.02520000      -0.09120000       1.97670000
H        2.04260000      -2.24260000       1.77370000
H        0.60730000      -2.84230000       0.93960000
H        2.98800000      -1.38170000      -0.34380000
H        2.52470000      -3.06370000      -0.56510000
H        1.68930000      -1.72940000      -2.54010000
H       -0.15240000      -0.04360000      -2.17810000
