19
Properties=species:S:1:pos:R:3 gdb_103875=T pbc="F F F"
C       -0.04060000       1.62610000      -0.06560000
C       -0.22160000       0.14700000       0.19020000
C       -1.40640000      -0.48530000      -0.52150000
O       -1.23010000      -0.45100000      -1.92710000
O        0.96740000      -0.67090000       0.06830000
C        0.34920000      -0.55530000       1.35210000
C        1.14580000       0.12500000       2.45520000
C        2.07310000      -0.79110000       3.11130000
C        2.82200000      -1.56350000       3.64590000
H        0.93460000       1.98160000       0.26980000
H       -0.12730000       1.81630000      -1.13900000
H       -0.82080000       2.20370000       0.44230000
H       -1.54410000      -1.51470000      -0.15980000
H       -2.32470000       0.07410000      -0.31210000
H       -0.40600000      -0.91890000      -2.10760000
H       -0.15010000      -1.46760000       1.68370000
H        1.69470000       0.97790000       2.04560000
H        0.44150000       0.52640000       3.19680000
H        3.49310000      -2.23840000       4.11640000
