13
Properties=species:S:1:pos:R:3 gdb_129525=T pbc="F F F"
N       -0.19220000       1.38700000       0.01400000
C        0.14210000       0.04270000       0.03200000
O        1.27050000      -0.37290000       0.12470000
N       -0.98820000      -0.78010000      -0.01970000
C       -0.99390000      -2.15540000      -0.00240000
N        0.05020000      -2.94510000      -0.09590000
O       -0.54670000      -4.22840000      -0.04480000
C       -1.85240000      -4.03600000       0.07090000
N       -2.21530000      -2.79400000       0.10390000
H        0.61020000       1.98400000      -0.11700000
H       -1.01380000       1.67730000      -0.49420000
H       -1.90330000      -0.37540000       0.10420000
H       -2.48240000      -4.91180000       0.12720000
