19
Properties=species:S:1:pos:R:3 gdb_108132=T pbc="F F F"
O       -0.05710000       1.46120000       0.07530000
C        0.02240000       0.04450000       0.09530000
C       -1.34520000      -0.56530000       0.00810000
O       -2.19270000      -0.27470000       1.13450000
C       -3.04490000      -1.32480000       0.57930000
C       -3.61410000      -0.60970000      -0.66070000
C       -2.23180000      -0.48560000      -1.33480000
C       -1.87670000      -1.97720000      -1.57630000
C       -1.78310000      -2.04790000      -0.04300000
H       -0.67340000       1.71050000       0.77360000
H        0.62730000      -0.25140000      -0.76810000
H        0.52820000      -0.31810000       1.00360000
H       -3.70660000      -1.78440000       1.31160000
H       -4.32130000      -1.20020000      -1.24990000
H       -4.07230000       0.33910000      -0.37540000
H       -2.07370000       0.28230000      -2.08860000
H       -2.61320000      -2.59390000      -2.09900000
H       -0.89300000      -2.11600000      -2.03330000
H       -1.30800000      -2.84470000       0.52730000
