23
Properties=species:S:1:pos:R:3 gdb_103300=T pbc="F F F"
C        0.09500000       1.55400000       0.18280000
C       -0.27950000       0.10560000      -0.16340000
C        0.55190000      -0.49000000      -1.31040000
C        0.06190000       0.01580000      -2.66650000
C        2.10490000      -0.63190000      -1.16340000
C        1.93900000      -1.72860000      -0.09200000
C        0.96050000      -2.01490000      -1.26580000
C        0.13780000      -3.23290000      -1.55230000
O        2.08750000      -1.69870000      -2.18930000
H        1.12920000       1.62080000       0.53750000
H       -0.00180000       2.21840000      -0.68130000
H       -0.55230000       1.94580000       0.97340000
H       -0.20280000      -0.50190000       0.74280000
H       -1.33670000       0.06760000      -0.45510000
H        0.08040000       1.11000000      -2.70940000
H        0.68090000      -0.37220000      -3.47490000
H       -0.97550000      -0.29460000      -2.83910000
H        2.88080000       0.12950000      -1.25670000
H        2.77670000      -2.42490000      -0.03910000
H        1.54850000      -1.47310000       0.89330000
H       -0.62990000      -3.36140000      -0.78230000
H       -0.35840000      -3.14480000      -2.52370000
H        0.76750000      -4.12780000      -1.56490000
