19
Properties=species:S:1:pos:R:3 gdb_10308=T pbc="F F F"
C        0.12040000       1.51440000       0.06820000
N       -0.11110000       0.08260000      -0.11630000
C        0.64150000      -0.51740000      -1.21150000
C        2.10560000      -0.45690000      -0.98010000
N        3.22060000      -0.34170000      -0.69580000
C        0.19220000      -1.97590000      -1.48280000
C       -1.31730000      -2.05030000      -1.73930000
N        1.02250000      -2.51070000      -2.56360000
H        1.17590000       1.78090000       0.23090000
H       -0.23500000       2.05440000      -0.81620000
H       -0.46240000       1.85960000       0.92610000
H        0.10940000      -0.41030000       0.74400000
H        0.43100000       0.07150000      -2.11550000
H        0.43270000      -2.55830000      -0.58350000
H       -1.57840000      -1.49010000      -2.64580000
H       -1.62060000      -3.09130000      -1.88910000
H       -1.88870000      -1.62870000      -0.90980000
H        0.92350000      -3.51920000      -2.61350000
H        0.70300000      -2.14840000      -3.45880000
