17
Properties=species:S:1:pos:R:3 gdb_126942=T pbc="F F F"
C       -0.05970000       1.51540000      -0.07290000
C        0.01430000       0.00250000       0.10460000
N       -1.31940000      -0.57590000       0.06920000
C       -1.57540000      -1.90230000       0.02960000
N       -2.87620000      -2.27090000       0.09410000
C       -3.07740000      -3.57230000       0.02620000
C       -2.01310000      -4.46960000      -0.10140000
N       -0.75650000      -4.03590000      -0.14700000
N       -0.51730000      -2.73730000      -0.07660000
H        0.94360000       1.94780000      -0.04320000
H       -0.51740000       1.77830000      -1.03170000
H       -0.64660000       1.98160000       0.72660000
H        0.61280000      -0.45340000      -0.68970000
H        0.51590000      -0.24820000       1.04940000
H       -2.11830000       0.01360000       0.23970000
H       -4.10740000      -3.92070000       0.07570000
H       -2.15990000      -5.54180000      -0.16120000
