22
Properties=species:S:1:pos:R:3 gdb_61652=T pbc="F F F"
C        0.00080000       1.59720000       0.21310000
C       -0.01780000       0.06310000       0.06290000
C        0.66530000      -0.45510000      -1.22740000
C       -0.03640000      -0.06670000      -2.52540000
C        0.16770000       1.33960000      -3.16840000
C        0.21950000       0.65650000      -4.56010000
C        0.51050000      -0.68820000      -3.84290000
C        0.60470000      -0.56100000       1.23660000
N        1.10720000      -1.05010000       2.15570000
H        1.02790000       1.97360000       0.21060000
H       -0.54080000       2.06490000      -0.61110000
H       -0.47000000       1.90120000       1.15130000
H       -1.06400000      -0.27150000       0.04940000
H        1.70580000      -0.10650000      -1.24530000
H        0.70940000      -1.54950000      -1.17080000
H       -1.10960000      -0.28030000      -2.44060000
H       -0.60100000       2.09880000      -3.00350000
H        1.13840000       1.76370000      -2.89130000
H       -0.76030000       0.65270000      -5.04640000
H        0.95940000       1.02000000      -5.27640000
H        1.58640000      -0.87930000      -3.76910000
H        0.02370000      -1.59180000      -4.21800000
