19
Properties=species:S:1:pos:R:3 gdb_96114=T pbc="F F F"
C       -0.13260000       1.50270000       0.00040000
C        0.04940000       0.00480000      -0.00290000
O       -0.74360000      -0.71850000       0.95250000
C        0.67940000      -0.70260000       1.12660000
C        1.39220000      -2.02820000       0.92810000
O        1.54950000      -2.40320000      -0.42980000
C        0.38640000      -2.16980000      -1.20280000
C        0.14870000      -0.66310000      -1.36340000
O       -1.05440000      -0.39030000      -2.06830000
H        0.71660000       1.99720000      -0.48340000
H       -1.03840000       1.76860000      -0.55050000
H       -0.21910000       1.87470000       1.02410000
H        1.01350000      -0.11600000       1.98370000
H        2.40300000      -1.97000000       1.34450000
H        0.83940000      -2.80460000       1.48190000
H        0.56470000      -2.63200000      -2.17940000
H       -0.50570000      -2.62580000      -0.75180000
H        1.01790000      -0.22640000      -1.88200000
H       -0.94570000      -0.69050000      -2.97610000
