21
Properties=species:S:1:pos:R:3 gdb_59489=T pbc="F F F"
C        0.42890000       0.77130000       1.60390000
C       -0.23420000      -0.61340000       1.61550000
C       -0.79020000      -0.96720000       3.00250000
C       -1.33200000      -0.66910000       0.56980000
N       -0.93300000      -0.80260000      -0.84240000
C       -1.72210000      -1.87060000      -0.21780000
C       -1.02850000      -3.22220000      -0.11640000
C       -1.62520000      -4.07910000       0.90810000
N       -2.11020000      -4.74120000       1.72180000
H        1.25110000       0.81780000       2.32480000
H        0.82800000       1.00290000       0.61210000
H       -0.29180000       1.55340000       1.87240000
H        0.53300000      -1.34910000       1.34630000
H       -1.56540000      -0.25350000       3.30660000
H       -1.23280000      -1.96770000       3.01780000
H        0.00120000      -0.93440000       3.75770000
H       -2.15470000       0.01730000       0.77810000
H       -1.51250000      -0.23090000      -1.44990000
H       -2.77460000      -1.94820000      -0.48410000
H       -1.08710000      -3.73760000      -1.08230000
H        0.03430000      -3.08650000       0.10010000
