22
Properties=species:S:1:pos:R:3 gdb_119273=T pbc="F F F"
C        1.15640000       1.51890000      -0.25720000
O        1.21900000       0.11470000      -0.34470000
C        0.01810000      -0.46810000      -0.80450000
C        0.16000000      -1.97980000      -0.80450000
C       -1.11270000      -2.71850000      -1.17300000
O       -2.23280000      -2.35790000      -0.38650000
C       -2.25440000      -2.95730000       0.89570000
C        1.46960000      -2.58300000      -1.15100000
N        0.98420000      -2.60470000       0.24540000
H        0.97050000       1.97890000      -1.23990000
H        0.36330000       1.84810000       0.43170000
H        2.12130000       1.86630000       0.11960000
H       -0.82500000      -0.18090000      -0.15720000
H       -0.21970000      -0.11470000      -1.82290000
H       -1.38830000      -2.47610000      -2.20700000
H       -0.92320000      -3.80060000      -1.11190000
H       -2.23550000      -4.05530000       0.82180000
H       -1.40760000      -2.64610000       1.51870000
H       -3.18900000      -2.65010000       1.37230000
H        1.50960000      -3.55350000      -1.63920000
H        2.28160000      -1.90590000      -1.39460000
H        1.45990000      -1.85850000       0.75010000
