16
Properties=species:S:1:pos:R:3 gdb_7793=T pbc="F F F"
C        0.02590000       1.50650000       0.10470000
C       -0.02300000       0.00360000      -0.11210000
C        0.86030000      -0.50420000      -1.23880000
C        0.83090000      -2.01950000      -1.20180000
O        1.19840000      -2.51440000       0.09360000
C        0.93070000      -1.83330000       1.23020000
O        1.19860000      -2.30180000       2.29540000
O        0.38130000      -0.60280000       1.13740000
H        1.05270000       1.83440000       0.29180000
H       -0.35430000       2.02780000      -0.77900000
H       -0.58700000       1.78580000       0.96510000
H       -1.06050000      -0.30780000      -0.29960000
H        0.49250000      -0.14220000      -2.20380000
H        1.88480000      -0.13850000      -1.10570000
H       -0.17050000      -2.39590000      -1.44860000
H        1.54340000      -2.46890000      -1.89720000
