18
Properties=species:S:1:pos:R:3 gdb_48588=T pbc="F F F"
O       -0.08040000      -0.08270000      -0.02000000
C        0.03560000       1.11190000      -0.13880000
C        1.33410000       1.84520000      -0.09430000
C        1.75080000       2.69120000       1.18690000
C        3.13850000       2.57970000       0.48740000
C        2.70180000       1.14480000       0.08310000
N        2.90230000       3.49620000      -0.67790000
C        2.81700000       2.85320000      -2.00270000
C        1.60530000       2.93660000      -1.15020000
H       -0.86030000       1.76290000      -0.27380000
H        1.33020000       3.69380000       1.28600000
H        1.66910000       2.12500000       2.11640000
H        4.07410000       2.79020000       1.00320000
H        2.68790000       0.47200000       0.94040000
H        3.16230000       0.63400000      -0.76120000
H        2.91040000       3.56410000      -2.81920000
H        3.30320000       1.90390000      -2.19230000
H        0.80780000       3.63910000      -1.37980000
