21
Properties=species:S:1:pos:R:3 gdb_39993=T pbc="F F F"
C       -0.47040000       1.27650000       0.24780000
C        0.98670000       1.03140000      -0.06700000
C        0.03570000      -0.12330000       0.05080000
C        0.07470000      -1.23220000       1.11320000
C       -0.50480000      -2.21880000       0.04880000
C       -1.98960000      -2.44630000       0.11590000
C       -2.65770000      -1.76630000      -0.81590000
C       -1.75150000      -0.96110000      -1.72050000
C       -0.36460000      -1.11680000      -1.06130000
H       -0.73550000       1.58130000       1.25560000
H       -1.09000000       1.72080000      -0.52500000
H        1.34490000       1.29910000      -1.05670000
H        1.71700000       1.17630000       0.72360000
H        1.08750000      -1.49010000       1.43910000
H       -0.54900000      -1.07610000       1.99870000
H        0.06360000      -3.14590000      -0.07470000
H       -2.44410000      -3.09080000       0.86170000
H       -3.73540000      -1.78150000      -0.94250000
H       -1.76610000      -1.35220000      -2.74720000
H       -2.06400000       0.08840000      -1.79220000
H        0.43390000      -1.28060000      -1.78900000
