16
Properties=species:S:1:pos:R:3 gdb_66909=T pbc="F F F"
C        0.05330000       1.49230000      -0.05440000
C       -0.06510000       0.00300000       0.14720000
C       -0.85040000      -0.80570000      -0.98350000
N       -0.70120000      -2.34620000      -0.96520000
C       -0.74950000      -2.09860000       0.48960000
C        0.42080000      -2.10740000       1.16700000
C        0.92300000      -0.68940000       1.08020000
O        1.96930000      -0.22970000       1.46480000
C       -1.38730000      -0.71780000       0.38420000
H        0.99020000       1.72890000      -0.56770000
H       -0.77500000       1.89470000      -0.64470000
H        0.07090000       2.00850000       0.91040000
H       -1.12950000      -0.31280000      -1.91050000
H       -1.61840000      -2.64800000      -1.31030000
H        1.14710000      -2.90990000       1.09990000
H       -2.28430000      -0.30340000       0.82580000
