16
Properties=species:S:1:pos:R:3 gdb_32036=T pbc="F F F"
C        0.03700000       1.42460000       0.00820000
O        0.01520000       0.00350000       0.00500000
C       -1.16320000      -0.64690000       0.01190000
C       -1.18880000      -2.01730000       0.00840000
C       -2.45410000      -2.64810000       0.01610000
C       -3.63170000      -1.95180000       0.02660000
C       -3.64250000      -0.51260000       0.03030000
O       -4.59690000       0.24750000       0.03970000
N       -2.32920000       0.04950000       0.02230000
H        1.09060000       1.70360000       0.00110000
H       -0.44680000       1.83920000      -0.88480000
H       -0.43350000       1.83500000       0.91030000
H       -0.25880000      -2.56570000       0.00010000
H       -2.48270000      -3.73380000       0.01350000
H       -4.59440000      -2.44550000       0.03250000
H       -2.33730000       1.05890000       0.02510000
