19
Properties=species:S:1:pos:R:3 gdb_38639=T pbc="F F F"
C       -0.04060000       1.56840000      -0.03900000
C        1.47500000       1.88180000       0.02670000
C        2.06830000       1.51470000       1.40970000
C        1.94610000      -0.04780000       1.38810000
C        0.75710000      -0.57170000       2.15920000
C       -0.34240000      -0.54360000       1.40390000
C       -0.03070000       0.00260000       0.03010000
C        1.50850000      -0.24710000      -0.10110000
O        2.02740000       0.86060000      -0.81530000
H       -0.61390000       2.02520000       0.77110000
H       -0.44410000       1.91930000      -0.99270000
H        1.76120000       2.86340000      -0.35350000
H        3.11480000       1.82860000       1.45210000
H        1.53360000       1.97050000       2.24640000
H        2.89170000      -0.53080000       1.64230000
H        0.80960000      -0.87910000       3.19750000
H       -1.34060000      -0.82430000       1.72030000
H       -0.62330000      -0.44120000      -0.77230000
H        1.80800000      -1.18270000      -0.57160000
