23
Properties=species:S:1:pos:R:3 gdb_58687=T pbc="F F F"
C        0.44340000       1.39410000       0.28110000
C       -0.05030000      -0.02430000      -0.04200000
C       -1.58480000      -0.09350000      -0.04410000
C        0.56050000      -0.58230000      -1.33250000
C        0.12350000       0.12600000      -2.62300000
C        0.95040000      -0.25180000      -3.83250000
O        0.64040000      -1.09900000      -4.63190000
C        1.95900000      -1.15200000      -1.22170000
C        0.77540000      -2.07470000      -1.39520000
H        1.53680000       1.44340000       0.28300000
H        0.07420000       2.12860000      -0.44320000
H        0.08900000       1.71010000       1.26760000
H        0.30600000      -0.68140000       0.76350000
H       -2.01710000       0.58700000      -0.78580000
H       -1.93700000      -1.10480000      -0.27090000
H       -1.98640000       0.19340000       0.93300000
H       -0.91980000      -0.12050000      -2.84390000
H        0.20500000       1.21220000      -2.49080000
H        1.90450000       0.31160000      -3.94690000
H        2.65210000      -1.04880000      -2.04890000
H        2.43860000      -1.11360000      -0.24900000
H        0.46110000      -2.66870000      -0.54340000
H        0.65450000      -2.56790000      -2.35370000
