20
Properties=species:S:1:pos:R:3 gdb_119536=T pbc="F F F"
C       -0.11250000       1.61710000       0.05480000
C       -0.11560000       0.08750000       0.09640000
C        0.83900000      -0.47840000       1.16020000
C        0.85660000      -1.98040000       1.18070000
C       -0.14190000      -2.86010000       1.95290000
C        1.31760000      -3.02210000       2.17770000
O        1.87150000      -3.85130000       1.11900000
C        1.53660000      -2.87000000       0.18520000
N        1.81050000      -2.78200000      -1.03480000
H        0.88620000       2.00470000      -0.17500000
H       -0.79850000       1.99420000      -0.70960000
H       -0.41890000       2.04350000       1.01700000
H       -1.13090000      -0.27780000       0.29580000
H        0.17220000      -0.31620000      -0.88060000
H        1.85460000      -0.10930000       0.96890000
H        0.55280000      -0.10660000       2.15270000
H       -0.68700000      -2.32100000       2.72280000
H       -0.69700000      -3.65040000       1.45720000
H        1.87680000      -2.95550000       3.10070000
H        2.34640000      -3.59030000      -1.35540000
