17
Properties=species:S:1:pos:R:3 gdb_45203=T pbc="F F F"
O       -0.22540000       0.07660000       0.40820000
C       -0.06800000       1.19740000       0.05700000
O       -1.05170000       2.10040000      -0.37560000
C       -0.00360000       2.99180000      -0.91820000
C        0.33310000       4.47100000      -0.62900000
C        1.66100000       4.19520000       0.15520000
C        1.10730000       3.20330000       1.20270000
C        1.01360000       2.27740000      -0.05030000
C        2.34790000       2.91970000      -0.50880000
H        0.07320000       2.76490000      -1.98440000
H        0.45850000       5.03430000      -1.55690000
H       -0.38760000       4.99990000      -0.00080000
H        2.26610000       5.05640000       0.43970000
H        1.85720000       2.83430000       1.90500000
H        0.18170000       3.45920000       1.72290000
H        2.55480000       2.92210000      -1.58140000
H        3.23280000       2.61960000       0.05420000
