19
Properties=species:S:1:pos:R:3 gdb_133753=T pbc="F F F"
C        0.09570000       1.52670000       0.08720000
C        0.02210000       0.04170000      -0.26570000
N       -1.29830000      -0.54600000      -0.01540000
C       -2.31010000      -0.09960000      -0.96250000
C       -1.25670000      -1.98930000       0.11910000
C       -1.01160000      -2.43190000       1.55750000
F       -1.98060000      -2.01550000       2.37810000
F       -0.97170000      -3.77470000       1.62000000
F        0.15370000      -1.97670000       2.05010000
H        1.12210000       1.88720000      -0.03240000
H       -0.54170000       2.14080000      -0.55540000
H       -0.21020000       1.68620000       1.12500000
H        0.32620000      -0.10990000      -1.32020000
H        0.74310000      -0.49800000       0.35080000
H       -2.09430000      -0.39650000      -2.00650000
H       -3.28550000      -0.50790000      -0.68360000
H       -2.39230000       0.98930000      -0.93570000
H       -2.22250000      -2.41930000      -0.15940000
H       -0.49330000      -2.47480000      -0.51140000
