13
Properties=species:S:1:pos:R:3 gdb_3304=T pbc="F F F"
N        0.01800000      -1.18840000      -0.13990000
C        0.02220000      -0.03620000      -0.04710000
C        0.01010000       1.41600000       0.05430000
C       -0.22700000       2.07480000       1.47280000
C        1.11500000       2.79490000       1.30890000
N        2.12900000       1.72460000       1.17980000
C        1.36430000       2.15000000      -0.00840000
H       -0.69450000       1.82010000      -0.67650000
H       -1.09520000       2.73500000       1.46490000
H       -0.28320000       1.38420000       2.31520000
H        1.38320000       3.78290000       1.65920000
H        3.04540000       2.16710000       1.12190000
H        1.85690000       2.51180000      -0.90140000
