23
Properties=species:S:1:pos:R:3 gdb_91820=T pbc="F F F"
C        0.12280000       1.61060000      -0.02410000
C       -0.01660000       0.08320000      -0.01320000
C        0.61040000      -0.54490000      -1.27610000
C        0.69980000      -2.06880000      -1.21080000
C        2.02030000      -2.73910000      -0.89450000
C        0.90770000      -2.72150000       0.13700000
C        0.20620000      -4.03250000       0.44400000
C        1.02420000      -1.78490000       1.28870000
C        0.59060000      -0.52550000       1.23360000
H        1.17800000       1.90690000      -0.00980000
H       -0.33370000       2.04210000      -0.92120000
H       -0.36190000       2.06060000       0.84880000
H       -1.09280000      -0.15200000      -0.01490000
H        0.03540000      -0.24330000      -2.15900000
H        1.61250000      -0.11690000      -1.40440000
H        0.05050000      -2.60410000      -1.89770000
H        2.25150000      -3.68480000      -1.37530000
H        2.87810000      -2.09520000      -0.72860000
H        0.15070000      -4.66750000      -0.44620000
H        0.74050000      -4.59380000       1.22010000
H       -0.81530000      -3.86200000       0.80190000
H        1.45340000      -2.18020000       2.20800000
H        0.66900000       0.11400000       2.11050000
