18
Properties=species:S:1:pos:R:3 gdb_51549=T pbc="F F F"
O       -0.62900000       0.32680000       0.20260000
C       -0.05670000       1.38570000       0.17690000
C        1.36390000       1.58710000      -0.31360000
C        1.43480000       2.66950000      -1.37330000
N        1.34390000       4.06580000      -0.88480000
C        2.57940000       3.59710000      -1.48860000
C        3.95080000       3.60060000      -0.82170000
O        4.56410000       4.01590000      -2.06470000
C        3.29220000       4.10650000      -2.73880000
H       -0.55260000       2.32130000       0.51850000
H        1.97040000       1.89890000       0.54670000
H        1.74880000       0.63370000      -0.68730000
H        0.91590000       2.43380000      -2.30200000
H        0.81960000       4.64760000      -1.53440000
H        4.07120000       4.34710000      -0.02720000
H        4.33430000       2.63200000      -0.47790000
H        3.24520000       3.46520000      -3.62800000
H        3.04860000       5.13960000      -3.02500000
