19
Properties=species:S:1:pos:R:3 gdb_27250=T pbc="F F F"
C       -0.05210000       1.51690000       0.06260000
C        0.00280000       0.03030000      -0.04180000
C        0.00420000      -0.81860000      -1.12120000
N       -0.01010000      -0.70050000      -2.53830000
C        0.32620000      -2.07190000      -3.01600000
C        0.04640000      -3.08450000      -1.85300000
C        0.08130000      -2.16040000      -0.66920000
C        0.11730000      -2.12990000       0.70050000
N        0.05490000      -0.80040000       1.07020000
H        0.71820000       1.91000000       0.73800000
H        0.12100000       1.95500000      -0.92380000
H       -1.02090000       1.88760000       0.42430000
H       -0.92460000      -0.42110000      -2.87940000
H       -0.22410000      -2.30320000      -3.93170000
H        1.39520000      -2.09450000      -3.25770000
H       -0.93400000      -3.56760000      -1.96570000
H        0.79630000      -3.88110000      -1.83680000
H        0.18030000      -2.90600000       1.44650000
H        0.11750000      -0.46950000       2.01700000
