18
Properties=species:S:1:pos:R:3 gdb_90515=T pbc="F F F"
O        0.07810000       1.41500000      -0.09770000
C        0.04770000       0.01790000       0.12420000
C        0.10150000      -0.53460000       1.59210000
C       -1.24050000      -1.23010000       1.34100000
C       -2.31460000      -0.24800000       0.98530000
C       -2.47490000       1.14980000       1.57860000
C       -3.04930000       1.11070000       2.92380000
N       -3.50220000       1.06150000       3.98610000
C       -1.31870000      -0.62430000      -0.07850000
H        0.98560000       1.71960000       0.00550000
H        0.79980000      -0.48590000      -0.49590000
H        0.93010000      -1.22860000       1.74670000
H        0.11750000       0.21330000       2.39030000
H       -1.47900000      -2.24020000       1.64860000
H       -3.27230000      -0.73770000       0.82420000
H       -1.52010000       1.67860000       1.60450000
H       -3.13210000       1.74670000       0.93590000
H       -1.64350000      -1.08190000      -1.00530000
