21
Properties=species:S:1:pos:R:3 gdb_101272=T pbc="F F F"
C       -0.23590000       1.52850000      -0.13830000
C       -0.08670000       0.00690000      -0.22870000
C        1.06860000      -0.46640000      -1.13300000
C        2.45700000      -0.08540000      -0.59820000
C        0.98860000      -1.96710000      -1.30960000
O       -0.06960000      -2.48450000      -2.11270000
C        1.27790000      -2.65780000      -2.58760000
C        1.66270000      -1.95150000      -3.78040000
C        2.01340000      -1.39340000      -4.78600000
H        0.63550000       2.00230000       0.32450000
H       -0.36700000       1.97060000      -1.13220000
H       -1.11060000       1.79720000       0.46180000
H        0.04940000      -0.41090000       0.77860000
H       -1.01660000      -0.42290000      -0.61830000
H        0.93600000      -0.01490000      -2.12350000
H        2.63840000      -0.53540000       0.38540000
H        3.24530000      -0.42760000      -1.27590000
H        2.55860000       0.99750000      -0.49120000
H        1.17280000      -2.54840000      -0.40140000
H        1.63050000      -3.68810000      -2.53740000
H        2.31360000      -0.89650000      -5.67540000
