16
Properties=species:S:1:pos:R:3 gdb_52635=T pbc="F F F"
C       -0.33740000       1.40050000       0.10150000
C       -0.09550000      -0.02820000      -0.01270000
C        0.12580000      -1.20940000      -0.09890000
C        0.35360000      -2.62270000      -0.21910000
N       -0.72890000      -3.33700000      -0.69700000
N        1.48800000      -3.09580000       0.16280000
C        1.68170000      -4.53690000       0.12130000
C        1.58580000      -5.13560000      -1.22300000
N        1.45940000      -5.57140000      -2.28710000
H        0.51420000       1.90650000       0.56790000
H       -0.50040000       1.85270000      -0.88270000
H       -1.22450000       1.60170000       0.71190000
H       -1.46440000      -2.78970000      -1.11570000
H       -0.54460000      -4.20830000      -1.17410000
H        2.67620000      -4.76320000       0.51790000
H        0.95460000      -5.06350000       0.76070000
