22
Properties=species:S:1:pos:R:3 gdb_97370=T pbc="F F F"
C       -0.02110000       1.39650000      -0.07170000
N        0.05070000      -0.04860000      -0.03160000
C       -1.03630000      -0.67990000      -0.00670000
O       -1.05380000      -2.02520000       0.06410000
C       -2.33060000      -2.67270000      -0.04520000
C       -2.69290000      -2.89070000      -1.50950000
C       -2.22380000      -3.99120000       0.74460000
C       -1.82550000      -3.77710000       2.20170000
O       -3.44180000      -4.71990000       0.62890000
H        0.50430000       1.76720000      -0.95940000
H       -1.04920000       1.79560000      -0.08780000
H        0.49470000       1.81640000       0.79970000
H       -2.03470000      -0.21250000      -0.02200000
H       -3.09240000      -2.04260000       0.44250000
H       -3.61880000      -3.46490000      -1.58140000
H       -2.82390000      -1.93590000      -2.02730000
H       -1.89570000      -3.44630000      -2.01280000
H       -1.46960000      -4.61460000       0.24940000
H       -2.56710000      -3.15370000       2.71930000
H       -1.76800000      -4.73890000       2.71800000
H       -0.85830000      -3.27580000       2.27270000
H       -4.07950000      -4.32390000       1.23320000
