23
Properties=species:S:1:pos:R:3 gdb_108178=T pbc="F F F"
C        0.07630000       1.54710000      -0.02100000
C       -0.03230000       0.01760000       0.01770000
C       -1.45780000      -0.52420000       0.03970000
C       -2.35730000      -0.13250000      -1.19060000
C       -3.51870000      -1.17010000      -1.13760000
C       -3.15810000      -2.02820000       0.12210000
C       -1.61990000      -2.06660000      -0.00190000
C       -3.30520000      -1.10570000       1.32200000
C       -2.30940000      -0.21620000       1.27030000
H        1.12420000       1.86280000      -0.02430000
H       -0.39690000       1.95990000      -0.91760000
H       -0.40290000       2.00970000       0.84830000
H        0.48620000      -0.39940000      -0.85640000
H        0.50350000      -0.36110000       0.89780000
H       -2.71090000       0.89880000      -1.12520000
H       -1.78320000      -0.22580000      -2.11930000
H       -4.50260000      -0.70360000      -1.04610000
H       -3.53250000      -1.79650000      -2.03500000
H       -3.68180000      -2.98310000       0.17970000
H       -1.26630000      -2.50960000      -0.94050000
H       -1.13500000      -2.56200000       0.84380000
H       -4.14150000      -1.11710000       2.01070000
H       -2.16790000       0.64600000       1.91100000
