21
Properties=species:S:1:pos:R:3 gdb_60074=T pbc="F F F"
C        0.78830000       1.55550000      -0.62590000
C       -0.02220000       0.46940000       0.08470000
C       -0.06400000      -0.82860000      -0.73910000
N        0.51270000       0.32460000       1.44810000
C       -0.22650000      -0.48350000       2.37860000
C       -0.09360000      -2.00980000       2.47590000
C        0.51540000      -1.12760000       3.52970000
C       -1.53770000       0.05290000       2.68170000
N       -2.59510000       0.46130000       2.91160000
H        1.83170000       1.24110000      -0.75660000
H        0.37940000       1.75810000      -1.62000000
H        0.78300000       2.48160000      -0.04630000
H       -1.05090000       0.83280000       0.20300000
H        0.94490000      -1.23850000      -0.87350000
H       -0.68310000      -1.59170000      -0.26080000
H       -0.48050000      -0.63870000      -1.73370000
H        1.48500000       0.03710000       1.42870000
H       -0.97110000      -2.59240000       2.73240000
H        0.57000000      -2.47190000       1.75460000
H        1.59230000      -0.99370000       3.53560000
H        0.05650000      -1.09310000       4.51020000
