13
Properties=species:S:1:pos:R:3 gdb_29442=T pbc="F F F"
O        0.18970000       1.29820000      -0.05610000
C        0.07750000      -0.03840000      -0.07590000
C       -0.11840000      -0.84930000      -1.14160000
O       -0.17050000      -2.15110000      -0.63470000
C        0.00910000      -1.99440000       0.68220000
O       -0.01770000      -3.06760000       1.47730000
C        0.16970000      -4.31930000       0.93820000
N       -0.00620000      -5.30940000       1.68840000
N        0.16250000      -0.77900000       1.09300000
H        0.32140000       1.55460000       0.86490000
H       -0.23390000      -0.73200000      -2.20160000
H        0.46960000      -4.29890000      -0.11020000
H        0.18600000      -6.17120000       1.18120000
