21
Properties=species:S:1:pos:R:3 gdb_9852=T pbc="F F F"
C        0.14560000       1.29730000      -0.28760000
O        0.05150000      -0.08070000      -0.01360000
C       -1.27190000      -0.57800000       0.13500000
C       -2.03690000      -0.60360000      -1.19420000
C       -1.14830000      -1.95630000       0.77310000
C       -0.37450000      -2.99320000      -0.01300000
C       -1.14820000      -2.00840000       2.25570000
N       -2.32770000      -2.47090000       1.49440000
H        1.20550000       1.56080000      -0.24310000
H       -0.23520000       1.56180000      -1.28460000
H       -0.39840000       1.89790000       0.45900000
H       -1.82100000       0.07010000       0.84250000
H       -1.47260000      -1.15170000      -1.95350000
H       -3.00770000      -1.09210000      -1.06450000
H       -2.22120000       0.40670000      -1.56920000
H        0.63490000      -2.63080000      -0.22570000
H       -0.30760000      -3.92330000       0.55630000
H       -0.86600000      -3.22180000      -0.96420000
H       -0.60140000      -2.79450000       2.76910000
H       -1.21430000      -1.07240000       2.80480000
H       -3.05540000      -1.75960000       1.53260000
