16
Properties=species:S:1:pos:R:3 gdb_44529=T pbc="F F F"
O        0.05940000      -0.01220000       0.07040000
C        0.01380000       1.19590000       0.08090000
N       -1.17360000       1.96120000       0.09030000
C       -0.85280000       3.33400000      -0.19730000
C       -1.01230000       4.61690000       0.67280000
C       -0.23350000       4.57430000       1.95030000
C        0.52870000       4.77780000       0.65050000
C        0.62280000       3.39910000       0.05490000
C        1.15020000       2.17970000       0.17710000
H       -2.00760000       1.51000000      -0.25540000
H       -1.10090000       3.61300000      -1.23100000
H       -1.76520000       5.37340000       0.48800000
H       -0.32790000       5.45900000       2.57310000
H       -0.11380000       3.64650000       2.50050000
H        1.13710000       5.65080000       0.45830000
H        2.15020000       1.86620000       0.44130000
