19
Properties=species:S:1:pos:R:3 gdb_53046=T pbc="F F F"
C        0.00230000       1.49830000      -0.13400000
C       -0.02170000       0.04580000      -0.05610000
C       -0.03880000      -1.15700000       0.01970000
C       -0.06130000      -2.59530000       0.08400000
C        0.61530000      -3.42890000      -1.03960000
C       -0.62830000      -4.36900000      -1.08670000
C       -1.33550000      -3.51370000      -0.00230000
C       -0.98150000      -3.89570000       1.43860000
O        0.24800000      -3.13430000       1.40040000
H        0.64970000       1.84510000      -0.94690000
H       -1.00010000       1.90450000      -0.30980000
H        0.37710000       1.93460000       0.79850000
H        0.77010000      -2.86180000      -1.96010000
H        1.56060000      -3.87570000      -0.72570000
H       -1.14120000      -4.35980000      -2.05060000
H       -0.45160000      -5.41010000      -0.80380000
H       -2.33740000      -3.14120000      -0.20820000
H       -1.66840000      -3.50030000       2.19810000
H       -0.80470000      -4.96080000       1.63530000
