15
Properties=species:S:1:pos:R:3 gdb_25224=T pbc="F F F"
N       -0.01450000       1.31810000       0.01120000
C       -0.06780000       0.05500000       0.00400000
O        1.06570000      -0.76420000      -0.00690000
C        0.72030000      -2.16010000      -0.01330000
C       -0.76990000      -2.11930000      -0.00500000
C       -1.22300000      -0.82830000       0.00510000
C       -2.64600000      -0.86170000       0.01260000
C       -2.99200000      -2.19260000       0.00660000
N       -1.83450000      -2.96230000      -0.00420000
H        0.95640000       1.63390000       0.00780000
H        1.15340000      -2.62890000      -0.90700000
H        1.16290000      -2.63930000       0.87020000
H       -3.32660000      -0.02600000       0.02120000
H       -3.95980000      -2.66840000       0.00910000
H       -1.81110000      -3.96720000      -0.01030000
