18
Properties=species:S:1:pos:R:3 gdb_116130=T pbc="F F F"
O        0.08390000       1.44100000      -0.16400000
C        0.03340000       0.03650000      -0.11060000
C       -1.39310000      -0.48270000       0.00900000
O       -1.97550000       0.14640000       1.11060000
C       -3.34170000      -0.22430000       1.26840000
C       -4.12580000       0.22280000       0.03690000
C       -3.44610000      -0.22660000      -1.23450000
N       -4.10020000      -0.52010000      -2.27540000
O       -2.07650000      -0.20010000      -1.21830000
H       -0.46910000       1.76120000       0.55820000
H        0.47240000      -0.34660000      -1.03590000
H        0.60550000      -0.37060000       0.73850000
H       -1.40310000      -1.57770000       0.15040000
H       -3.41450000      -1.31370000       1.40990000
H       -3.69780000       0.26490000       2.17730000
H       -5.15120000      -0.15000000       0.04170000
H       -4.16260000       1.31880000       0.02550000
H       -3.45880000      -0.75940000      -3.03510000
