19
Properties=species:S:1:pos:R:3 gdb_116818=T pbc="F F F"
C       -0.87490000       0.62410000      -1.25930000
O       -1.26370000      -0.02660000      -0.05280000
C       -1.54390000      -1.34100000      -0.17320000
N       -1.84630000      -2.00530000       0.85400000
C       -2.15410000      -3.41670000       0.76490000
C       -2.38610000      -4.07410000      -0.61020000
N       -3.59120000      -3.61830000      -1.28980000
C       -3.59570000      -2.88510000      -2.42900000
O       -2.60620000      -2.49840000      -3.02400000
H       -0.98470000       1.69560000      -1.08510000
H        0.17160000       0.40630000      -1.50540000
H       -1.50970000       0.32310000      -2.10030000
H       -1.49810000      -1.71040000      -1.20380000
H       -1.34630000      -3.97480000       1.25990000
H       -3.04460000      -3.59740000       1.38460000
H       -1.55370000      -3.89800000      -1.29450000
H       -2.45610000      -5.15770000      -0.45480000
H       -4.48340000      -3.84090000      -0.87620000
H       -4.62410000      -2.66470000      -2.77420000
