14
Properties=species:S:1:pos:R:3 gdb_33480=T pbc="F F F"
C        0.05570000      -1.22300000      -0.05850000
C        0.01990000      -0.02340000      -0.02820000
C       -0.01060000       1.42770000       0.02610000
C       -0.25090000       2.10970000       1.45180000
C        1.11790000       2.77960000       1.31370000
O        2.08450000       1.73030000       1.16050000
C        1.38070000       2.15620000       0.01180000
C       -0.90510000       1.99070000      -0.98570000
N       -1.58900000       2.47000000      -1.78440000
H        0.08820000      -2.28430000      -0.09060000
H       -1.09550000       2.79880000       1.42900000
H       -0.34810000       1.40540000       2.27830000
H        1.46150000       3.71970000       1.72540000
H        1.93410000       2.46700000      -0.86570000
