16
Properties=species:S:1:pos:R:3 gdb_133588=T pbc="F F F"
F        0.20410000       0.08940000      -0.16090000
C        0.00490000       1.41310000      -0.02080000
F        1.20790000       2.00590000      -0.09530000
F       -0.70860000       1.81380000      -1.08850000
C       -0.70300000       1.77170000       1.26660000
C       -1.97860000       0.96700000       1.68110000
C       -1.32490000       0.69000000       3.04380000
C       -0.04580000      -0.07020000       2.86260000
C       -0.04600000       1.41370000       2.60450000
H       -0.91940000       2.84080000       1.20590000
H       -2.86310000       1.60350000       1.73090000
H       -2.21240000       0.08460000       1.07900000
H       -1.83400000       0.74480000       3.99740000
H        0.45290000      -0.35610000       3.78320000
H        0.07150000      -0.78200000       2.05320000
H        0.58600000       2.08870000       3.16740000
