20
Properties=species:S:1:pos:R:3 gdb_72935=T pbc="F F F"
C       -0.25480000       1.46820000      -0.12580000
C        0.02800000      -0.00090000       0.07090000
C       -1.12530000      -0.92300000       0.51820000
O       -0.29290000      -1.56450000       1.51530000
C        0.80240000      -0.66770000       1.24860000
C        1.82210000      -1.18890000       0.21170000
C        1.61590000      -2.59620000      -0.39330000
C        0.82410000      -1.89060000      -1.53220000
N        1.04300000      -0.54290000      -0.91130000
H        0.67790000       2.02840000      -0.23300000
H       -0.83750000       1.62120000      -1.04200000
H       -0.82290000       1.88260000       0.71370000
H       -1.95170000      -0.37410000       0.98930000
H       -1.54320000      -1.63320000      -0.20270000
H        1.16460000      -0.16880000       2.15210000
H        2.85180000      -0.84370000       0.35320000
H        2.53190000      -3.09970000      -0.70730000
H        1.02730000      -3.26560000       0.23540000
H        1.29980000      -1.94120000      -2.51640000
H       -0.22100000      -2.18860000      -1.65310000
