20
Properties=species:S:1:pos:R:3 gdb_116597=T pbc="F F F"
C        0.22670000       1.51090000      -0.33870000
C       -0.43180000       0.34400000       0.39150000
N        0.29400000       0.03540000       1.61850000
C       -0.12450000      -0.91060000       2.34350000
O       -1.23320000      -1.68580000       2.05810000
C       -1.40650000      -2.65320000       3.09210000
C       -0.28390000      -2.40790000       4.06890000
C       -0.10950000      -3.22160000       5.30640000
C        0.44410000      -1.38770000       3.60470000
H        1.26260000       1.26940000      -0.59540000
H       -0.31240000       1.74910000      -1.26150000
H        0.24010000       2.40330000       0.29460000
H       -1.48080000       0.58520000       0.61900000
H       -0.46670000      -0.53920000      -0.26360000
H       -2.39780000      -2.52380000       3.54920000
H       -1.37210000      -3.66190000       2.65630000
H        0.02250000      -4.28400000       5.06620000
H        0.75830000      -2.89160000       5.88170000
H       -0.99410000      -3.15450000       5.95210000
H        1.32340000      -0.94130000       4.04570000
