13
Properties=species:S:1:pos:R:3 gdb_10792=T pbc="F F F"
N       -0.08130000       1.32500000       0.29300000
C       -0.00110000       0.13710000      -0.11190000
O        1.05270000      -0.37080000      -0.81670000
C        1.27780000      -1.78060000      -0.71940000
C        0.02660000      -2.55110000      -1.11400000
O        0.03310000      -3.66410000      -1.56890000
C       -1.23330000      -1.73770000      -0.85800000
O       -1.00110000      -0.74090000       0.13790000
H        0.79370000       1.81260000       0.10990000
H        2.10080000      -2.01790000      -1.39470000
H        1.57000000      -2.05960000       0.30260000
H       -1.57310000      -1.28130000      -1.79830000
H       -2.02880000      -2.38100000      -0.47940000
