21
Properties=species:S:1:pos:R:3 gdb_119170=T pbc="F F F"
C       -0.01900000       1.39110000      -0.09940000
O       -0.08760000      -0.01220000       0.00750000
C        0.74030000      -0.53390000       1.02170000
C        0.65810000      -2.05060000       1.01310000
C       -0.58040000      -2.69760000       0.50200000
N        0.66040000      -2.72080000      -0.29900000
C        1.44520000      -2.78120000       2.06770000
C        2.42820000      -2.12630000       2.96940000
N        1.14630000      -2.62240000       3.50320000
H        1.00270000       1.73190000      -0.32700000
H       -0.68260000       1.68790000      -0.91460000
H       -0.34900000       1.88510000       0.82730000
H        1.78470000      -0.22220000       0.85140000
H        0.43920000      -0.13260000       2.00580000
H       -0.88180000      -3.65990000       0.90650000
H       -1.38780000      -2.05260000       0.17350000
H        0.58190000      -2.00550000      -1.01960000
H        1.63050000      -3.81330000       1.78120000
H        3.30510000      -2.67590000       3.30010000
H        2.58180000      -1.05350000       2.89390000
H        0.50550000      -1.84320000       3.63820000
