15
Properties=species:S:1:pos:R:3 gdb_128433=T pbc="F F F"
C        0.02240000       1.30470000      -0.10500000
O        0.19200000      -0.11490000      -0.00930000
C        0.62230000      -0.56480000       1.16220000
N        0.94690000       0.17800000       2.13430000
N        0.68610000      -1.98540000       1.14420000
C        1.47940000      -2.79330000       1.90020000
N        1.26270000      -4.05350000       1.60800000
C        0.29930000      -3.97190000       0.63970000
N       -0.08030000      -2.75280000       0.31740000
H        0.97970000       1.81410000       0.02960000
H       -0.37250000       1.47940000      -1.10530000
H       -0.67620000       1.65840000       0.65710000
H        1.19020000      -0.35030000       2.96640000
H        2.19740000      -2.41390000       2.61070000
H       -0.13050000      -4.84080000       0.16410000
