14
Properties=species:S:1:pos:R:3 gdb_124683=T pbc="F F F"
C       -0.18130000       1.43000000      -0.04290000
C        0.02220000      -0.08230000       0.02710000
C        0.71720000      -0.65080000      -1.22110000
O        0.61440000      -0.14180000      -2.30090000
N        0.76340000      -0.49160000       1.21640000
N        2.05370000      -0.25130000       1.39600000
N        2.33550000      -0.75930000       2.55640000
N        1.21920000      -1.30630000       3.07750000
N        0.23830000      -1.14380000       2.24470000
H        0.78140000       1.94560000      -0.01980000
H       -0.67910000       1.66990000      -0.98370000
H       -0.79390000       1.77500000       0.79250000
H       -0.94120000      -0.59880000       0.11430000
H        1.29370000      -1.58330000      -1.04960000
