21
Properties=species:S:1:pos:R:3 gdb_52737=T pbc="F F F"
C       -0.08660000       1.49090000       0.06780000
C       -0.00850000       0.03740000       0.03730000
C        0.07580000      -1.16480000       0.02470000
C        0.09120000      -2.62480000      -0.00340000
C       -1.36450000      -3.09570000       0.05940000
O       -1.80630000      -3.85160000       0.88200000
C        0.78650000      -3.20350000      -1.27600000
C        2.21470000      -2.66500000      -1.41560000
C        0.77570000      -4.73780000      -1.25390000
H        0.74550000       1.91970000       0.63680000
H       -0.05160000       1.91380000      -0.94210000
H       -1.01730000       1.82800000       0.53720000
H        0.59420000      -3.02270000       0.88690000
H       -2.00250000      -2.66620000      -0.74620000
H        0.20480000      -2.85930000      -2.14220000
H        2.22780000      -1.57310000      -1.45220000
H        2.83550000      -2.98320000      -0.56990000
H        2.67860000      -3.04650000      -2.33070000
H       -0.23610000      -5.14680000      -1.18130000
H        1.23390000      -5.13480000      -2.16490000
H        1.34720000      -5.11900000      -0.39970000
