23
Properties=species:S:1:pos:R:3 gdb_73829=T pbc="F F F"
C        0.04740000       1.51340000       0.11190000
C       -0.01140000       0.02180000      -0.00350000
C       -0.03120000      -0.73290000      -1.11490000
C       -0.02520000      -0.29190000      -2.54620000
C       -0.01370000      -2.19050000      -0.77340000
C        1.23000000      -2.67000000      -0.04340000
C        0.00170000      -2.28060000       0.74150000
C       -0.75890000      -3.33790000       1.50580000
C       -0.04580000      -0.83690000       1.24940000
H        0.95510000       1.83760000       0.63800000
H        0.03340000       2.01040000      -0.86110000
H       -0.80010000       1.89670000       0.69600000
H       -0.04370000       0.79540000      -2.65180000
H        0.86330000      -0.66760000      -3.07000000
H       -0.89380000      -0.69460000      -3.08340000
H       -0.56280000      -2.89720000      -1.38930000
H        1.46310000      -3.72980000      -0.08930000
H        2.09670000      -2.01550000      -0.04020000
H       -0.72090000      -4.30520000       0.99440000
H       -0.34270000      -3.48080000       2.51060000
H       -1.81400000      -3.06310000       1.62190000
H        0.78590000      -0.60600000       1.92970000
H       -0.96560000      -0.65180000       1.82550000
