17
Properties=species:S:1:pos:R:3 gdb_47013=T pbc="F F F"
N       -0.08220000       1.29230000      -0.14790000
C       -0.03030000       0.02630000      -0.03910000
O        1.19910000      -0.60760000       0.07830000
C        1.26220000      -1.93960000       0.61170000
C        0.29630000      -2.80670000      -0.17400000
C       -0.48320000      -4.03510000       0.39830000
N       -1.73580000      -3.32490000       0.01000000
C       -1.04530000      -2.12840000      -0.13720000
C       -1.23160000      -0.80920000      -0.02820000
H        0.86010000       1.68130000      -0.08140000
H        2.30840000      -2.23970000       0.51410000
H        0.99590000      -1.93080000       1.67780000
H        0.66460000      -2.98890000      -1.18710000
H       -0.33950000      -4.99860000      -0.09610000
H       -0.36660000      -4.15060000       1.48230000
H       -2.59300000      -3.39350000       0.54380000
H       -2.18480000      -0.31710000       0.10960000
