16
Properties=species:S:1:pos:R:3 gdb_76967=T pbc="F F F"
N        0.28110000       0.64790000      -1.05840000
C        0.04690000       0.07720000       0.15440000
O        0.74140000       0.24710000       1.13510000
C       -1.24240000      -0.72830000       0.23050000
C       -1.81180000      -1.53570000      -0.88070000
O       -1.20010000      -1.61010000      -2.12480000
C       -1.19780000      -2.26890000       0.33090000
C        0.07310000      -2.97890000       0.11960000
O        0.84860000      -2.73530000      -0.78950000
H        1.16240000       1.12220000      -1.18000000
H       -0.20040000       0.29420000      -1.87240000
H       -1.94530000      -0.28520000       0.92960000
H       -2.89270000      -1.58920000      -0.97070000
H       -0.30830000      -1.98640000      -1.98430000
H       -1.86460000      -2.72030000       1.05670000
H        0.29510000      -3.79770000       0.83120000
