18
Properties=species:S:1:pos:R:3 gdb_19213=T pbc="F F F"
C       -0.03580000       1.53490000      -0.31250000
C        1.43640000       1.65050000       0.24990000
C        1.37630000       0.13500000       0.57090000
C        0.93750000      -0.44830000       1.93850000
C       -0.53110000      -0.54860000       1.36380000
C       -0.02150000       0.01070000       0.00340000
C        0.63340000      -0.95510000      -1.00360000
O        1.95250000      -0.77460000      -0.38940000
H       -0.77790000       2.09900000       0.25810000
H       -0.15300000       1.79170000      -1.36880000
H        2.19420000       1.89790000      -0.49600000
H        1.55780000       2.31460000       1.10990000
H        1.40850000      -1.40730000       2.16310000
H        1.05860000       0.21450000       2.79950000
H       -0.94940000      -1.55810000       1.32620000
H       -1.25320000       0.09940000       1.86690000
H        0.30600000      -2.00120000      -0.95150000
H        0.63130000      -0.63270000      -2.05260000
