21
Properties=species:S:1:pos:R:3 gdb_107061=T pbc="F F F"
C        0.45830000       1.46780000       0.19680000
C       -0.10330000       0.07390000      -0.11400000
C        0.43960000      -0.50610000      -1.39640000
C        0.10470000       0.10810000      -2.75230000
C        0.66660000      -0.89910000      -3.77820000
C        0.66670000      -2.28100000      -3.07030000
O        1.69080000      -3.15430000      -3.50890000
C        0.75010000      -1.92620000      -1.59690000
O        1.80560000      -0.97840000      -1.33730000
H        1.55000000       1.43540000       0.25990000
H        0.18590000       2.19420000      -0.57550000
H        0.07290000       1.83800000       1.15120000
H        0.13880000      -0.61030000       0.70610000
H       -1.19790000       0.11730000      -0.18200000
H       -0.98560000       0.19770000      -2.83490000
H        0.52240000       1.11190000      -2.87630000
H        0.10430000      -0.91630000      -4.71410000
H        1.70130000      -0.64480000      -4.02330000
H       -0.27130000      -2.81770000      -3.25720000
H        2.52690000      -2.74880000      -3.24930000
H        0.60420000      -2.68500000      -0.83160000
