17
Properties=species:S:1:pos:R:3 gdb_32827=T pbc="F F F"
N       -1.25160000       1.47510000       0.15530000
H       -1.51790000       0.57710000      -0.23810000
H       -0.77850000       1.98760000      -0.58480000
H       -2.58650000       2.38960000       0.74260000
C       -0.33280000       1.28470000       1.30140000
C        0.03200000       2.62370000       1.95110000
C       -1.10250000       3.34550000       2.61590000
C       -2.42120000       3.44910000       2.27020000
O       -3.18300000       2.97510000       1.29810000
O       -3.05010000       4.23950000       3.17890000
C       -2.06440000       4.59210000       4.05520000
N       -0.90800000       4.09930000       3.77780000
H       -0.84640000       0.64860000       2.02960000
H        0.58800000       0.76600000       0.99960000
H        0.79750000       2.44070000       2.71200000
H        0.51750000       3.25800000       1.19170000
H       -2.35490000       5.22980000       4.87400000
