22
Properties=species:S:1:pos:R:3 gdb_60354=T pbc="F F F"
C       -0.25090000       1.48680000      -0.01860000
C        0.01750000      -0.02020000      -0.01910000
C        0.95150000      -0.43860000      -1.14850000
O        0.64040000      -0.44960000       1.19320000
C       -0.20120000      -0.50940000       2.31760000
C        0.61620000      -1.14410000       3.45840000
C        1.84280000      -0.29380000       3.83810000
C       -0.25200000      -1.37170000       4.61650000
N       -0.94260000      -1.53800000       5.52820000
H        0.68670000       2.03770000       0.10730000
H       -0.70540000       1.79070000      -0.96670000
H       -0.93420000       1.78140000       0.78290000
H       -0.94080000      -0.55550000      -0.12590000
H        1.91660000       0.06860000      -1.05030000
H        1.12660000      -1.51710000      -1.12080000
H        0.52180000      -0.17810000      -2.12000000
H       -0.54820000       0.48700000       2.63120000
H       -1.09260000      -1.12170000       2.10980000
H        0.95860000      -2.12370000       3.10310000
H        2.44230000      -0.79250000       4.60310000
H        2.45400000      -0.13660000       2.94820000
H        1.53150000       0.68010000       4.22710000
