17
Properties=species:S:1:pos:R:3 gdb_128464=T pbc="F F F"
C       -0.00560000       1.39710000      -0.03390000
O       -0.15590000       0.00090000      -0.17890000
C        0.69350000      -0.58240000      -1.15500000
C        2.13160000      -0.76310000      -0.65150000
C        0.07360000      -1.89420000      -1.53030000
C       -0.46770000      -2.36580000      -2.68530000
N       -0.86380000      -3.65970000      -2.44510000
N       -0.60660000      -3.99000000      -1.26130000
O        0.01410000      -2.86330000      -0.61940000
H        0.97980000       1.67840000       0.36310000
H       -0.15860000       1.92160000      -0.98980000
H       -0.77080000       1.72360000       0.67370000
H        0.69740000       0.04130000      -2.06330000
H        2.74820000      -1.24160000      -1.41800000
H        2.58060000       0.20400000      -0.41250000
H        2.13630000      -1.38820000       0.24430000
H       -0.60300000      -1.89160000      -3.64200000
