15
Properties=species:S:1:pos:R:3 gdb_49397=T pbc="F F F"
O       -0.02650000      -0.01660000       0.34370000
C       -0.00030000       1.18190000       0.22330000
C        1.27130000       1.98600000       0.09570000
C        1.43590000       2.95920000      -1.08880000
C        2.13020000       3.97190000      -0.24550000
C        0.70610000       4.27410000      -0.75230000
C        0.23560000       4.14330000       0.66200000
O       -0.59320000       4.69360000       1.32810000
C        1.45680000       3.25210000       0.99560000
H       -0.94130000       1.77610000       0.18760000
H        2.13090000       1.31510000       0.16360000
H        1.61920000       2.70500000      -2.12480000
H        3.02080000       4.56980000      -0.35310000
H        0.40360000       4.97080000      -1.52130000
H        1.83760000       3.17810000       2.00980000
