19
Properties=species:S:1:pos:R:3 gdb_8533=T pbc="F F F"
C       -0.14820000       1.58190000       0.04080000
C       -0.02680000       0.07400000      -0.06400000
C        0.89170000      -0.58460000      -1.09320000
C        2.12010000      -0.28330000      -0.18610000
C        2.60470000      -1.73160000      -0.16260000
C        1.07290000      -1.80540000      -0.12560000
C        0.19670000      -3.01050000       0.05170000
N        1.00650000      -0.58640000       0.85580000
H        0.81440000       2.08450000      -0.09120000
H       -0.83430000       1.96490000      -0.72260000
H       -0.54510000       1.86440000       1.02150000
H       -1.01340000      -0.39150000       0.05370000
H        0.84860000      -0.59720000      -2.18920000
H        2.70230000       0.63600000      -0.12500000
H        3.09600000      -2.10570000      -1.06510000
H        3.12400000      -2.05290000       0.74530000
H        0.44260000      -3.52520000       0.98610000
H       -0.86350000      -2.74010000       0.08160000
H        0.34310000      -3.71440000      -0.77470000
