25
Properties=species:S:1:pos:R:3 gdb_112618=T pbc="F F F"
C        0.01060000       1.33370000       0.66430000
C       -0.03080000      -0.13340000       0.22790000
C       -1.41730000      -0.56390000      -0.22160000
C       -1.69460000      -2.06810000      -0.41470000
C       -2.79860000      -1.87360000       0.65700000
C       -4.22270000      -1.94570000       0.11520000
C       -2.59970000      -2.66510000       1.95130000
C       -3.43490000      -2.15450000       3.12990000
O       -2.39990000      -0.47890000       0.84010000
H        1.00590000       1.61530000       1.02050000
H       -0.24980000       2.00100000      -0.16510000
H       -0.70580000       1.50810000       1.47200000
H        0.66950000      -0.30730000      -0.60050000
H        0.28890000      -0.77910000       1.05520000
H       -1.73310000       0.05240000      -1.07710000
H       -2.04160000      -2.37150000      -1.40400000
H       -0.87390000      -2.72010000      -0.10500000
H       -4.51700000      -2.98470000      -0.07090000
H       -4.93240000      -1.50740000       0.82220000
H       -4.30310000      -1.39220000      -0.82490000
H       -2.82230000      -3.72190000       1.75130000
H       -1.53730000      -2.61390000       2.21640000
H       -3.25960000      -1.08540000       3.28110000
H       -4.50700000      -2.30340000       2.96900000
H       -3.16470000      -2.67820000       4.05170000
