13
Properties=species:S:1:pos:R:3 gdb_133426=T pbc="F F F"
F        0.05020000       0.05180000      -0.14490000
C       -0.06820000       1.36260000      -0.03480000
N       -1.18790000       1.87830000       0.25100000
N       -1.17000000       3.25490000       0.33440000
C       -0.10040000       4.11540000       0.14650000
N       -0.13770000       5.38670000       0.23490000
C        1.20140000       3.43460000      -0.19050000
N        2.25910000       4.10520000      -0.38680000
N        1.10170000       2.03710000      -0.25670000
H       -2.06910000       3.64640000       0.56210000
H       -1.07660000       5.71730000       0.46790000
H        3.05660000       3.50440000      -0.60490000
H        1.92660000       1.49840000      -0.47710000
