16
Properties=species:S:1:pos:R:3 gdb_39029=T pbc="F F F"
C       -0.07570000       1.36970000      -0.04550000
C        1.34100000       0.80960000       0.01870000
C        1.86790000       0.50800000       1.44600000
N        1.02800000      -0.55950000       2.04750000
C        0.18770000      -0.86080000       1.15080000
O       -0.65330000      -1.91080000       1.05200000
C       -1.17000000      -1.86100000      -0.29750000
O       -0.32720000      -1.01560000      -1.06660000
C        0.16070000      -0.10740000      -0.11640000
H       -0.52900000       1.80990000       0.83890000
H       -0.34220000       1.84370000      -0.98510000
H        2.03100000       1.05070000      -0.78020000
H        2.90250000       0.14720000       1.42000000
H        1.85690000       1.40670000       2.07380000
H       -1.14510000      -2.86760000      -0.71860000
H       -2.19680000      -1.47100000      -0.25900000
