20
Properties=species:S:1:pos:R:3 gdb_57808=T pbc="F F F"
C        0.18930000       0.98610000      -0.10850000
C       -0.37520000      -0.18550000       0.70840000
O       -0.38290000       0.10350000       2.10500000
C       -1.70240000      -0.58480000       0.22620000
C       -2.81260000      -0.85840000      -0.15920000
C       -4.15480000      -1.24630000      -0.60680000
N       -4.62700000      -2.58800000      -0.24220000
C       -3.66400000      -3.68340000      -0.21750000
C       -4.23150000      -3.14080000       1.04870000
H        1.17300000       1.25940000       0.28190000
H        0.28410000       0.71610000      -1.16420000
H       -0.47220000       1.85570000      -0.03830000
H        0.30750000      -1.03860000       0.61350000
H       -1.07290000       0.75860000       2.25830000
H       -4.88630000      -0.52890000      -0.21440000
H       -4.20530000      -1.17140000      -1.70020000
H       -4.02060000      -4.62300000      -0.62980000
H       -2.62010000      -3.45330000      -0.41790000
H       -3.55570000      -2.55910000       1.67170000
H       -5.01240000      -3.67530000       1.58200000
