17
Properties=species:S:1:pos:R:3 gdb_1463=T pbc="F F F"
C        0.00320000       1.46870000       0.00100000
C        0.02280000       0.01260000      -0.01990000
C        0.04180000      -1.19170000      -0.02640000
C        0.04960000      -2.65330000      -0.05900000
C       -1.36100000      -3.24030000       0.14020000
C        0.68530000      -3.14790000      -1.36890000
O        0.79850000      -4.56020000      -1.28770000
H        0.66490000       1.86600000       0.77880000
H        0.33290000       1.88600000      -0.95700000
H       -1.00460000       1.85140000       0.19760000
H        0.69090000      -3.02230000       0.75360000
H       -2.03860000      -2.88140000      -0.64120000
H       -1.31840000      -4.33030000       0.09260000
H       -1.77180000      -2.94010000       1.10760000
H        0.05240000      -2.83980000      -2.21580000
H        1.66870000      -2.67240000      -1.49580000
H        1.14220000      -4.88410000      -2.12480000
