16
Properties=species:S:1:pos:R:3 gdb_62005=T pbc="F F F"
N       -0.12040000       0.45360000       1.29540000
C       -0.07620000      -0.47280000       0.29730000
O        0.90010000      -1.10230000      -0.03090000
O       -1.31540000      -0.58820000      -0.26260000
C       -1.47750000      -1.59440000      -1.26110000
C       -2.53030000      -2.62110000      -0.80400000
O       -2.83190000      -3.49870000      -1.88230000
C       -2.10720000      -3.33900000       0.39900000
C       -1.72730000      -3.95700000       1.35730000
H        0.76120000       0.77350000       1.65580000
H       -0.92270000       1.05370000       1.37590000
H       -1.84070000      -1.11330000      -2.17330000
H       -0.51730000      -2.07820000      -1.45210000
H       -3.46250000      -2.08390000      -0.59390000
H       -2.12230000      -4.14880000      -1.93540000
H       -1.39760000      -4.49560000       2.21140000
