14
Properties=species:S:1:pos:R:3 gdb_24705=T pbc="F F F"
C        0.03470000       1.37820000      -0.13400000
O        1.35200000       1.85800000       0.17750000
C        2.02880000       0.78560000       0.67730000
C        3.31910000       0.68280000       1.12980000
C        3.69960000      -0.59730000       1.58530000
C        2.79540000      -1.64490000       1.55670000
N        1.52030000      -1.53300000       1.10690000
C        1.20140000      -0.34060000       0.69430000
O       -0.02860000      -0.00580000       0.20190000
H       -0.70270000       1.93520000       0.45620000
H       -0.15330000       1.50650000      -1.20670000
H        3.99830000       1.52630000       1.13680000
H        4.70310000      -0.76200000       1.95910000
H        3.08330000      -2.63120000       1.90600000
