19
Properties=species:S:1:pos:R:3 gdb_26117=T pbc="F F F"
C       -0.09310000       1.59270000      -0.06650000
C       -0.05850000       0.05190000      -0.02950000
C       -1.48480000      -0.53240000      -0.00080000
C        0.75210000      -0.50860000      -1.14950000
C        1.88580000      -1.25810000      -1.24980000
N        2.74090000      -1.74100000      -0.25840000
N        2.19050000      -1.46930000      -2.58880000
C        1.24830000      -0.85380000      -3.22750000
O        0.33680000      -0.25120000      -2.44870000
H        0.91710000       2.01000000      -0.02960000
H       -0.57010000       1.94370000      -0.98690000
H       -0.66160000       1.98730000       0.78180000
H        0.45410000      -0.25000000       0.89340000
H       -2.02330000      -0.27450000      -0.91810000
H       -1.46520000      -1.62320000       0.08090000
H       -2.05020000      -0.13340000       0.84750000
H        2.26280000      -2.05540000       0.57500000
H        3.33110000      -2.47710000      -0.62360000
H        1.11330000      -0.77360000      -4.29480000
