20
Properties=species:S:1:pos:R:3 gdb_15839=T pbc="F F F"
C        0.88760000       1.14090000      -0.00860000
O        0.92820000      -0.24210000      -0.26200000
C       -0.05870000      -0.66210000      -1.17520000
C        0.04390000      -2.17720000      -1.37530000
O       -1.08010000      -2.61860000      -2.13580000
C        1.35610000      -2.60180000      -1.99010000
C        2.53680000      -2.94620000      -1.12030000
C        1.81090000      -4.03500000      -1.86590000
H        1.06560000       1.72970000      -0.92290000
H       -0.08180000       1.45130000       0.41300000
H        1.67550000       1.36620000       0.71440000
H       -1.06900000      -0.42170000      -0.80730000
H        0.06470000      -0.15020000      -2.14820000
H       -0.06330000      -2.65610000      -0.39440000
H       -0.89070000      -2.44740000      -3.06430000
H        1.58430000      -2.09780000      -2.92900000
H        3.52290000      -2.65270000      -1.46200000
H        2.40300000      -2.87840000      -0.04670000
H        1.17750000      -4.71020000      -1.30040000
H        2.30100000      -4.49500000      -2.71680000
