15
Properties=species:S:1:pos:R:3 gdb_19002=T pbc="F F F"
O       -0.01490000       0.00730000      -0.04560000
C       -0.00800000       1.20900000      -0.00300000
C       -1.18890000       2.19280000       0.03270000
N       -0.51210000       3.50410000       0.08110000
C        0.71470000       3.39940000      -0.83330000
C        1.45500000       4.35800000       0.11440000
C        0.71280000       3.33270000       0.98790000
C        1.15550000       2.16660000       0.03380000
H       -1.81910000       2.10760000      -0.85830000
H       -1.82000000       2.04260000       0.91450000
H        0.61640000       3.43840000      -1.91980000
H        2.54440000       4.31040000       0.11380000
H        1.07160000       5.37900000       0.15130000
H        0.61230000       3.29220000       2.07410000
H        2.16900000       1.76910000       0.02040000
