19
Properties=species:S:1:pos:R:3 gdb_8886=T pbc="F F F"
C       -0.02520000       1.56900000       0.05920000
C       -0.05730000       0.04230000      -0.02830000
C        0.74860000      -0.48460000      -1.23270000
O        2.08350000      -0.05520000      -1.17360000
C        0.74170000      -2.02260000      -1.27740000
O        1.77200000      -2.63820000      -1.03570000
N       -0.43750000      -2.61580000      -1.57790000
C       -0.60880000      -4.05600000      -1.63820000
H        1.00750000       1.92150000       0.11000000
H       -0.49400000       2.02590000      -0.81990000
H       -0.55830000       1.92400000       0.94630000
H        0.36940000      -0.39660000       0.88190000
H       -1.09420000      -0.31230000      -0.09600000
H        0.28880000      -0.10260000      -2.15960000
H        2.59090000      -0.86960000      -1.01020000
H       -1.22610000      -2.02620000      -1.78820000
H       -0.92620000      -4.37530000      -2.63660000
H        0.35550000      -4.50980000      -1.40900000
H       -1.34890000      -4.39920000      -0.90720000
