17
Properties=species:S:1:pos:R:3 gdb_17452=T pbc="F F F"
C       -0.05800000       1.44150000      -0.08300000
C       -0.01590000      -0.06830000      -0.08420000
C        0.78280000      -0.77190000      -1.11320000
N        1.30210000      -0.62730000       0.29470000
C        1.25260000      -2.13970000       0.41290000
C       -0.06060000      -2.83830000       0.10840000
C        0.80260000      -2.31600000      -1.00650000
O        1.35570000      -3.10640000      -1.99390000
H        0.87800000       1.85530000      -0.46740000
H       -0.88270000       1.80520000      -0.70510000
H       -0.20210000       1.82050000       0.93370000
H       -0.91250000      -0.53670000       0.30840000
H        1.28070000      -0.26080000      -1.93260000
H        2.03910000      -2.61380000       0.98530000
H        0.03640000      -3.91400000       0.22740000
H       -1.04430000      -2.45890000       0.36300000
H        0.64940000      -3.39100000      -2.58500000
