15
Properties=species:S:1:pos:R:3 gdb_131199=T pbc="F F F"
O       -0.12240000       1.33870000       0.26200000
C       -0.00810000       0.02090000      -0.01270000
C        0.11810000      -0.72600000      -1.16070000
C        0.30460000      -0.75870000      -2.64620000
C        0.19500000      -2.30600000      -2.88830000
O        0.35430000      -2.98920000      -1.61840000
C        0.18300000      -2.04160000      -0.66900000
N        0.09920000      -2.17710000       0.63290000
N       -0.00710000      -0.85440000       1.02700000
H       -0.11020000       1.82870000      -0.56560000
H       -0.45780000      -0.22860000      -3.22640000
H        1.28240000      -0.37570000      -2.96460000
H       -0.79250000      -2.56350000      -3.28740000
H        0.96010000      -2.68930000      -3.56630000
H       -0.17690000      -0.63720000       1.99310000
