16
Properties=species:S:1:pos:R:3 gdb_459=T pbc="F F F"
C       -0.47110000       1.43990000      -0.01390000
C        0.16450000       0.05100000       0.01440000
C        1.13620000      -0.23700000      -1.16450000
C        2.18770000      -1.12560000      -0.54410000
C        2.11180000      -1.13330000       0.78580000
C        0.99600000      -0.25120000       1.29270000
H        0.29590000       2.22180000       0.03440000
H       -1.04850000       1.59730000      -0.93140000
H       -1.14930000       1.58710000       0.83380000
H       -0.63480000      -0.69870000      -0.03560000
H        0.62760000      -0.69880000      -2.01890000
H        1.58950000       0.69120000      -1.54540000
H        2.93080000      -1.65320000      -1.13230000
H        2.78350000      -1.66820000       1.44860000
H        1.40230000       0.67220000       1.73350000
H        0.39370000      -0.72250000       2.07830000
