15
Properties=species:S:1:pos:R:3 gdb_64843=T pbc="F F F"
O        0.09180000       1.49570000       0.05030000
C       -0.00780000       0.10100000      -0.03440000
C       -1.46440000      -0.42680000      -0.12830000
C       -1.45700000      -1.44670000      -1.27680000
O       -2.34780000      -2.21130000      -1.55460000
C       -0.14820000      -1.30170000      -1.96500000
C        0.63040000      -0.43780000      -1.30710000
C        0.68600000      -0.52710000       1.17450000
O        1.24470000       0.14680000       2.00250000
H        0.59200000       1.67760000       0.86330000
H       -1.86250000      -0.87180000       0.78760000
H       -2.10280000       0.42140000      -0.39150000
H        0.08760000      -1.83050000      -2.87980000
H        1.62540000      -0.11320000      -1.59070000
H        0.63590000      -1.63180000       1.24180000
