16
Properties=species:S:1:pos:R:3 gdb_48827=T pbc="F F F"
O       -0.35250000       0.19770000       0.48650000
C       -0.08220000       1.29030000       0.06840000
C        1.28520000       1.89190000       0.03120000
C        1.44190000       3.36140000       0.35150000
N        1.52490000       2.92130000      -1.01660000
C        2.91730000       2.73310000      -1.51350000
C        3.66120000       1.78790000      -0.55490000
C        2.55070000       1.10030000       0.26140000
O        2.67040000       0.11360000       0.93320000
H       -0.85460000       1.97590000      -0.34920000
H        0.54990000       3.92740000       0.60820000
H        2.34140000       3.65690000       0.88810000
H        2.83650000       2.29230000      -2.51040000
H        3.38830000       3.71370000      -1.61840000
H        4.25400000       1.02980000      -1.07010000
H        4.33810000       2.30350000       0.13470000
