18
Properties=species:S:1:pos:R:3 gdb_48266=T pbc="F F F"
O       -0.59170000       0.83760000      -0.78710000
C        0.12870000       1.07210000       0.14240000
C        1.31470000       2.05120000       0.06090000
C        1.24880000       2.97450000      -1.17450000
C        2.51880000       3.76610000      -1.38720000
C        3.69230000       3.13730000      -2.10040000
C        2.89410000       4.22920000      -2.77010000
C        1.43030000       2.78590000       1.32090000
N        1.49310000       3.36410000       2.31980000
H        0.00520000       0.57490000       1.12690000
H        2.21020000       1.41370000      -0.01920000
H        1.04200000       2.33680000      -2.03890000
H        0.38730000       3.64270000      -1.06760000
H        2.76600000       4.44550000      -0.57590000
H        4.69290000       3.36690000      -1.75200000
H        3.57600000       2.12670000      -2.47990000
H        2.24440000       3.94750000      -3.59230000
H        3.34730000       5.20790000      -2.87840000
