21
Properties=species:S:1:pos:R:3 gdb_61605=T pbc="F F F"
C        0.30980000       1.59930000      -0.17260000
C        0.04490000       0.09310000       0.03150000
C        0.56650000      -0.76600000      -1.15000000
C       -0.17740000      -0.50430000      -2.43780000
O        0.20590000       0.63040000      -3.22830000
C        0.38550000      -0.67580000      -3.78860000
C        1.79370000      -1.12010000      -4.09130000
C        0.62390000      -0.37390000       1.29050000
C        1.12160000      -0.75700000       2.31580000
H        1.38510000       1.79300000      -0.22930000
H       -0.14770000       1.94880000      -1.10030000
H       -0.09480000       2.17540000       0.66360000
H       -1.04350000      -0.05510000       0.09010000
H        1.63620000      -0.58060000      -1.27880000
H        0.44920000      -1.82500000      -0.89080000
H       -1.26190000      -0.61720000      -2.34860000
H       -0.33170000      -0.90450000      -4.58060000
H        2.48290000      -0.87890000      -3.28020000
H        1.82170000      -2.20140000      -4.26500000
H        2.15540000      -0.62740000      -4.99990000
H        1.54950000      -1.09340000       3.22740000
