18
Properties=species:S:1:pos:R:3 gdb_40703=T pbc="F F F"
C       -0.35160000       1.33810000      -0.15410000
N        1.04620000       0.89310000      -0.06570000
C       -0.03560000      -0.11010000      -0.04520000
C       -0.19090000      -0.81640000       1.26000000
O       -1.32100000      -1.69100000       1.40750000
C       -0.01980000      -2.26810000       1.45880000
C        0.34530000      -3.26270000       0.39850000
C       -0.68210000      -4.09550000      -0.24490000
O       -0.05590000      -3.01760000      -0.94600000
H       -0.71120000       1.88240000       0.71530000
H       -0.73320000       1.70090000      -1.10470000
H        1.48110000       0.90920000      -0.98380000
H       -0.19330000      -0.72650000      -0.92200000
H       -0.00560000      -0.17800000       2.12600000
H        0.28880000      -2.59890000       2.45440000
H        1.35300000      -3.66850000       0.50180000
H       -0.42810000      -5.09230000      -0.60050000
H       -1.72390000      -3.92620000       0.01630000
