18
Properties=species:S:1:pos:R:3 gdb_56362=T pbc="F F F"
C        0.12140000       1.47110000       0.00710000
C       -0.02310000      -0.06820000       0.05970000
C        0.56490000      -0.57380000       1.31790000
C        1.08300000      -0.98290000       2.32290000
C       -1.44700000      -0.43910000       0.02000000
C       -2.61270000      -0.72450000      -0.01430000
N        0.61120000      -0.60400000      -1.16970000
C        2.04180000      -0.89990000      -1.15820000
C        1.03510000      -1.99780000      -1.20050000
H        1.18070000       1.73860000       0.03480000
H       -0.31860000       1.83530000      -0.92300000
H       -0.38440000       1.93140000       0.85790000
H        1.51980000      -1.34320000       3.22190000
H       -3.64220000      -0.98380000      -0.04380000
H        2.57890000      -0.59980000      -2.05320000
H        2.58580000      -0.77880000      -0.22480000
H        0.92430000      -2.58810000      -0.29420000
H        0.82050000      -2.52370000      -2.12600000
