16
Properties=species:S:1:pos:R:3 gdb_23329=T pbc="F F F"
O       -0.09990000       1.37620000      -0.12630000
N        0.06020000      -0.03200000      -0.10290000
C       -1.05360000      -0.61150000      -0.02820000
C       -2.56010000      -0.39600000       0.02200000
C       -2.62240000      -1.54660000      -1.04150000
C       -1.55650000      -2.03960000      -0.00390000
C       -2.56870000      -1.54690000       1.10830000
C       -2.09190000      -1.27860000       2.44640000
C       -1.71080000      -1.06570000       3.56650000
H        0.81490000       1.67540000      -0.15630000
H       -3.11920000       0.53490000       0.04940000
H       -3.55550000      -2.11550000      -1.06460000
H       -2.25750000      -1.30930000      -2.04080000
H       -0.98510000      -2.96460000      -0.00510000
H       -3.50350000      -2.11620000       1.11770000
H       -1.36570000      -0.87170000       4.55180000
