15
Properties=species:S:1:pos:R:3 gdb_48677=T pbc="F F F"
O       -0.08200000       0.01530000       0.21490000
C        0.01240000       1.18880000      -0.04670000
C        1.28890000       1.93570000      -0.04950000
C        1.29270000       3.42300000       0.21400000
C        1.63150000       2.92670000      -1.16040000
C        3.09520000       2.72700000      -1.43470000
O        3.75460000       3.22660000      -2.29680000
O        3.61300000       1.85830000      -0.51840000
C        2.58730000       1.20460000       0.24880000
H       -0.87930000       1.80230000      -0.30800000
H        0.32850000       3.90790000       0.32690000
H        2.08180000       3.81960000       0.84440000
H        0.98180000       3.14180000      -1.99800000
H        2.87510000       1.24690000       1.30260000
H        2.51640000       0.15770000      -0.05890000
