21
Properties=species:S:1:pos:R:3 gdb_101559=T pbc="F F F"
C        0.23690000       1.64920000      -0.00470000
C        0.02480000       0.13020000      -0.00070000
C        0.60790000      -0.51890000      -1.25650000
O       -0.04870000       0.03200000      -2.38640000
C        0.61870000      -0.52660000       1.25340000
C       -0.12120000      -0.19980000       2.53580000
O       -1.28490000       0.14300000       2.56580000
C        0.63920000      -0.33520000       3.84890000
O       -0.19430000      -0.12860000       4.94780000
H        1.30520000       1.89580000       0.04350000
H       -0.16670000       2.08290000      -0.92160000
H       -0.26110000       2.11820000       0.84800000
H       -1.05280000      -0.06820000       0.00020000
H        1.69530000      -0.33510000      -1.29850000
H        0.46230000      -1.61090000      -1.20840000
H        0.36620000      -0.31790000      -3.17970000
H        0.58720000      -1.62350000       1.16260000
H        1.68010000      -0.27230000       1.37510000
H        1.10870000      -1.33180000       3.88560000
H        1.47020000       0.39240000       3.82360000
H       -1.04860000       0.13220000       4.56660000
