21
Properties=species:S:1:pos:R:3 gdb_37943=T pbc="F F F"
C       -0.03000000       1.64730000       0.01700000
C        1.45720000       1.20900000      -0.09590000
C        1.15970000       0.22140000       1.07970000
C        2.07890000      -0.94790000       1.46000000
C        1.92750000      -2.24210000       0.64810000
C        2.21370000      -2.07020000      -0.81890000
C        1.80450000      -1.03480000      -1.55090000
C        0.96260000       0.12510000      -1.12000000
C       -0.04480000       0.09310000       0.08790000
H       -0.31560000       2.17920000       0.92810000
H       -0.47660000       2.10050000      -0.87170000
H        2.33230000       1.85360000      -0.20560000
H        0.88770000       0.76090000       1.99440000
H        3.12280000      -0.61250000       1.40620000
H        1.89540000      -1.18980000       2.51390000
H        2.59770000      -3.00120000       1.06670000
H        0.91080000      -2.63830000       0.78550000
H        2.79730000      -2.84970000      -1.30330000
H        2.08330000      -1.01530000      -2.60300000
H        0.52030000       0.58230000      -2.01220000
H       -0.92400000      -0.54710000       0.18560000
