14
Properties=species:S:1:pos:R:3 gdb_127950=T pbc="F F F"
C       -0.06790000       1.44270000       0.10490000
N       -0.02790000      -0.00840000       0.05700000
C        0.53180000      -0.57880000      -0.92370000
N        1.14870000       0.02160000      -2.02320000
N        1.74110000      -0.60980000      -3.06280000
N        1.77950000      -1.86420000      -3.11230000
C        1.19180000      -2.65680000      -2.06030000
O        1.22610000      -3.85770000      -2.10310000
N        0.60100000      -1.95760000      -1.02480000
H        0.93580000       1.89380000       0.13810000
H       -0.60880000       1.88130000      -0.74800000
H       -0.59090000       1.75220000       1.01200000
H        1.18220000       1.02510000      -2.09730000
H        0.18100000      -2.49000000      -0.27420000
