17
Properties=species:S:1:pos:R:3 gdb_66592=T pbc="F F F"
O       -0.12340000       1.34870000       0.08480000
C        0.02780000      -0.01880000       0.04820000
C       -0.21180000      -0.85560000      -1.22590000
C       -1.07190000      -1.04310000       0.01100000
C        0.01320000      -2.07870000       0.46310000
C        0.59560000      -2.14140000      -0.98490000
C        2.10090000      -1.90950000      -0.83900000
O        2.25110000      -1.13240000       0.36510000
C        0.95260000      -0.91240000       0.88450000
H        0.60530000       1.74730000      -0.40460000
H       -0.47630000      -0.37050000      -2.15710000
H       -2.13570000      -0.96440000       0.17020000
H       -0.12980000      -2.95810000       1.08510000
H        0.30940000      -2.99880000      -1.59560000
H        2.66470000      -2.84580000      -0.72870000
H        2.51900000      -1.35670000      -1.69040000
H        1.01740000      -0.66460000       1.94490000
