16
Properties=species:S:1:pos:R:3 gdb_49000=T pbc="F F F"
N       -0.28590000       1.20170000       0.62360000
C       -0.11860000       0.06010000       0.14030000
O        1.03650000      -0.56790000      -0.31220000
C        0.29920000      -1.76690000      -0.69760000
C        0.23350000      -2.83680000       0.40870000
C       -1.06010000      -2.17880000       0.97760000
C       -1.02480000      -1.10940000      -0.15740000
C        0.51790000      -2.14100000      -2.13100000
O        0.33540000      -3.25200000      -2.56050000
H        0.59120000       1.72130000       0.68460000
H        0.07060000      -3.82910000      -0.01550000
H        1.10890000      -2.85430000       1.05940000
H       -1.93630000      -2.82540000       0.91510000
H       -0.99850000      -1.76730000       1.98610000
H       -1.92050000      -0.92720000      -0.74700000
H        0.83940000      -1.29680000      -2.77830000
