14
Properties=species:S:1:pos:R:3 gdb_49367=T pbc="F F F"
O       -0.37970000       0.63640000       0.80940000
C        0.43240000       0.83490000      -0.05700000
C        1.34270000       2.03990000      -0.08280000
C        1.46960000       2.92060000       1.14030000
C        0.71080000       2.61760000       2.40890000
O        1.12960000       1.89430000       3.27360000
N        2.55200000       2.06220000       0.72340000
C        3.02480000       0.92680000       1.39080000
O        2.91800000      -0.18810000       0.94560000
H        0.53780000       0.15970000      -0.92780000
H        1.45860000       2.49100000      -1.06800000
H        1.61100000       3.98830000       0.96620000
H       -0.23830000       3.18050000       2.51490000
H        3.58450000       1.18450000       2.30120000
