16
Properties=species:S:1:pos:R:3 gdb_67417=T pbc="F F F"
O       -0.24580000       1.38060000       0.00250000
C       -0.01410000       0.03990000       0.00090000
C        0.03220000      -1.01760000      -1.06320000
C        1.30120000      -1.63380000      -0.48510000
C        0.92560000      -0.93940000       0.85460000
C       -0.35220000      -1.68760000       1.31590000
C       -1.03800000      -1.07460000       0.09230000
C       -2.42620000      -1.01390000      -0.20790000
N       -3.56020000      -0.97060000      -0.43860000
H        0.40460000       1.81600000      -0.56080000
H       -0.31280000      -0.96440000      -2.08760000
H        1.39280000      -2.72430000      -0.46730000
H        2.19270000      -1.19530000      -0.94170000
H        1.68720000      -0.64300000       1.57090000
H       -0.29560000      -2.77840000       1.38290000
H       -0.76690000      -1.27550000       2.23810000
