17
Properties=species:S:1:pos:R:3 gdb_68719=T pbc="F F F"
C       -0.02590000       1.51910000       0.04830000
C       -0.05130000       0.02320000       0.03710000
N        1.15150000      -0.73040000      -0.30190000
C        0.56500000      -0.96490000       1.03250000
C        1.33750000      -0.72460000       2.20470000
C        1.96840000      -0.54110000       3.21200000
C       -0.68890000      -1.82020000       0.93350000
N       -1.83970000      -0.97030000       1.32900000
C       -1.28320000      -0.86640000      -0.04300000
H        0.93750000       1.87840000       0.41740000
H       -0.17410000       1.92020000      -0.96090000
H       -0.82020000       1.90380000       0.69410000
H        0.96220000      -1.51170000      -0.92780000
H        2.52810000      -0.37280000       4.09830000
H       -0.75090000      -2.90150000       0.96520000
H       -2.67930000      -1.55120000       1.27920000
H       -1.89080000      -1.07720000      -0.91550000
