12
Properties=species:S:1:pos:R:3 gdb_74=T pbc="F F F"
C        0.00620000       1.45930000      -0.03890000
N       -0.06410000       0.01420000      -0.12050000
C       -1.20600000      -0.68200000       0.16120000
C       -1.08980000      -2.19280000       0.02100000
O       -2.24480000      -0.14440000       0.49990000
H        0.75050000       1.78370000       0.69720000
H        0.25690000       1.90400000      -1.00880000
H       -0.97860000       1.81120000       0.27080000
H        0.75820000      -0.49540000      -0.39460000
H       -0.09910000      -2.53540000      -0.28970000
H       -1.34100000      -2.65400000       0.97970000
H       -1.82900000      -2.53480000      -0.70810000
