25
Properties=species:S:1:pos:R:3 gdb_101696=T pbc="F F F"
C        0.95290000       1.46370000       0.10770000
C        0.86520000      -0.06070000       0.02510000
C        1.25960000      -0.64190000      -1.33820000
C        1.24410000      -2.17280000      -1.30590000
O        0.32390000      -0.14700000      -2.30470000
C        0.82640000       0.23610000      -3.55680000
C        1.23980000      -0.89110000      -4.48090000
C        0.12870000       1.43230000      -4.13350000
C        1.55730000       1.55720000      -3.63780000
H        1.97610000       1.81460000      -0.06990000
H        0.30060000       1.92850000      -0.63610000
H        0.64800000       1.82270000       1.09550000
H        1.50800000      -0.51370000       0.78980000
H       -0.15940000      -0.38610000       0.24520000
H        2.26640000      -0.28530000      -1.60200000
H        0.23810000      -2.53140000      -1.06540000
H        1.53450000      -2.60260000      -2.26690000
H        1.93430000      -2.54940000      -0.54350000
H        0.43110000      -1.62290000      -4.57760000
H        1.47150000      -0.50310000      -5.47720000
H        2.13200000      -1.41060000      -4.11600000
H       -0.05830000       1.45960000      -5.20140000
H       -0.64770000       1.87770000      -3.52250000
H        1.71530000       2.10200000      -2.71490000
H        2.35210000       1.66480000      -4.36880000
