23
Properties=species:S:1:pos:R:3 gdb_112119=T pbc="F F F"
C        0.05710000       1.62410000       0.11840000
C       -0.04450000       0.10030000      -0.00160000
C        0.68000000      -0.48740000      -1.23380000
C        2.13490000      -0.07760000      -1.29030000
C        3.11720000      -0.92130000      -0.98210000
C        2.84670000      -2.33150000      -0.54090000
O        1.47800000      -2.58660000      -0.29840000
C        0.62380000      -2.03050000      -1.29750000
C       -0.75230000      -2.64920000      -1.09830000
H        1.09080000       1.95100000       0.26590000
H       -0.32460000       2.12200000      -0.78090000
H       -0.52840000       1.98640000       0.96910000
H        0.36920000      -0.37280000       0.89620000
H       -1.10330000      -0.17890000      -0.04620000
H        0.17910000      -0.10100000      -2.13440000
H        2.36560000       0.93780000      -1.60000000
H        4.16110000      -0.62620000      -1.05340000
H        3.24430000      -3.03800000      -1.29460000
H        3.37120000      -2.54980000       0.39770000
H        1.00170000      -2.32690000      -2.29110000
H       -1.11490000      -2.48350000      -0.08090000
H       -1.47460000      -2.22220000      -1.80120000
H       -0.70240000      -3.72850000      -1.26560000
