17
Properties=species:S:1:pos:R:3 gdb_28467=T pbc="F F F"
C       -0.09780000       1.48760000       0.00760000
C        0.01190000      -0.01230000      -0.01420000
C        0.23560000      -0.72750000      -1.18280000
N        0.33240000      -2.06460000      -1.19570000
C        0.20390000      -2.67620000      -0.03540000
O        0.29440000      -4.02370000      -0.00170000
C       -0.02460000      -1.98380000       1.17530000
C       -0.16520000      -2.71950000       2.47630000
N       -0.11600000      -0.66170000       1.15910000
H        0.02080000       1.91060000      -0.99330000
H       -1.07040000       1.79890000       0.40230000
H        0.66650000       1.92210000       0.66020000
H        0.34160000      -0.22300000      -2.13930000
H        0.44980000      -4.30700000      -0.91380000
H        0.73360000      -3.30650000       2.69510000
H       -0.33540000      -2.00460000       3.28230000
H       -0.99880000      -3.42950000       2.43830000
