21
Properties=species:S:1:pos:R:3 gdb_74690=T pbc="F F F"
C       -0.06070000       1.48190000       0.05320000
C        0.00960000      -0.01310000      -0.03470000
C       -0.02600000      -0.71300000      -1.17180000
C        0.02810000      -2.21850000      -1.03980000
C        1.21540000      -2.61770000      -0.13450000
C        0.17820000      -2.31460000       0.97720000
C        0.12340000      -3.17900000       2.21400000
C        0.11130000      -0.79990000       1.26260000
O       -0.88850000      -2.62610000       0.02440000
H        0.82360000       1.89320000       0.55750000
H       -0.13300000       1.94050000      -0.93670000
H       -0.92980000       1.80300000       0.64230000
H       -0.09130000      -0.24300000      -2.14810000
H       -0.15320000      -2.76140000      -1.96930000
H        1.43690000      -3.68620000      -0.18300000
H        2.13050000      -2.02490000      -0.18880000
H        0.98110000      -2.97580000       2.86450000
H       -0.79030000      -2.97710000       2.78380000
H        0.13230000      -4.23770000       1.94180000
H        0.99470000      -0.48130000       1.83450000
H       -0.75900000      -0.58680000       1.89950000
