13
Properties=species:S:1:pos:R:3 gdb_16052=T pbc="F F F"
O       -0.00050000       1.38940000       0.00170000
C       -0.03220000       0.01040000       0.00220000
C       -0.46330000      -0.75820000       1.19610000
O       -1.41690000       0.01220000       1.92490000
C       -2.37170000      -0.06210000       0.82480000
C       -1.35620000      -0.78200000      -0.06230000
C       -1.62420000      -1.80250000      -1.01160000
N       -1.83690000      -2.63170000      -1.79170000
H       -0.31680000       1.67590000       0.87000000
H        0.75330000      -0.43570000      -0.60030000
H        0.07510000      -1.53990000       1.71990000
H       -3.22520000      -0.68350000       1.10600000
H       -2.70170000       0.92550000       0.48910000
