20
Properties=species:S:1:pos:R:3 gdb_91542=T pbc="F F F"
C       -0.26210000       1.41610000      -0.33620000
C        0.07340000      -0.00740000       0.09070000
C        1.23220000      -0.78630000      -0.59490000
N        1.88060000      -1.12220000       0.72350000
C        2.24500000       0.17840000       1.31690000
C        0.83320000      -0.25000000       1.40130000
C        0.17600000      -0.63410000       2.68370000
C        0.18460000      -2.02020000       3.17550000
O        1.02890000      -1.02050000       3.75770000
H        0.62330000       2.05940000      -0.33270000
H       -0.67840000       1.42940000      -1.34930000
H       -1.00460000       1.86570000       0.33240000
H       -0.83590000      -0.61730000       0.07750000
H        0.92180000      -1.69610000      -1.11180000
H        1.88180000      -0.20340000      -1.25790000
H        2.82720000       0.07230000       2.22580000
H        2.54760000       0.99240000       0.66100000
H       -0.65420000       0.01290000       2.97690000
H       -0.62270000      -2.37660000       3.81380000
H        0.70530000      -2.77150000       2.58680000
