23
Properties=species:S:1:pos:R:3 gdb_116953=T pbc="F F F"
C       -0.40420000       1.34760000      -0.55990000
O       -0.43200000      -0.05940000      -0.59650000
C       -0.81080000      -0.61440000       0.65000000
C       -0.82620000      -2.06850000       0.57270000
C       -0.83560000      -3.27220000       0.53640000
C       -0.86030000      -4.72840000       0.46490000
C       -2.18440000      -5.31490000      -0.08460000
C       -2.05200000      -6.83130000      -0.26600000
C       -3.37210000      -4.96050000       0.81640000
H       -0.10540000       1.69140000      -1.55270000
H       -1.39210000       1.77220000      -0.31830000
H        0.31950000       1.72530000       0.18060000
H       -0.11160000      -0.28830000       1.44050000
H       -1.80810000      -0.24230000       0.94490000
H       -0.02760000      -5.06880000      -0.16450000
H       -0.67210000      -5.14630000       1.46440000
H       -2.35350000      -4.86140000      -1.06970000
H       -1.86270000      -7.32680000       0.69410000
H       -2.96980000      -7.25820000      -0.68240000
H       -1.22750000      -7.08550000      -0.94080000
H       -4.31010000      -5.33380000       0.39310000
H       -3.25470000      -5.40850000       1.81100000
H       -3.46170000      -3.87810000       0.94370000
