18
Properties=species:S:1:pos:R:3 gdb_32637=T pbc="F F F"
C       -0.07240000       1.55290000       0.00790000
C        0.04370000       0.02670000       0.00640000
N        0.69930000      -0.49470000      -1.18580000
C        0.08280000      -0.70180000      -2.40790000
C        1.02480000      -1.11960000      -3.30730000
C        2.27400000      -1.16990000      -2.61370000
C        3.56840000      -1.56620000      -3.14350000
O        3.78020000      -1.91330000      -4.28680000
C        2.02480000      -0.77290000      -1.30750000
H        0.91620000       2.01810000      -0.03890000
H       -0.65380000       1.90150000      -0.85020000
H       -0.57120000       1.89130000       0.92110000
H        0.61490000      -0.31520000       0.87430000
H       -0.94760000      -0.43270000       0.07390000
H       -0.97790000      -0.53560000      -2.51430000
H        0.86880000      -1.37940000      -4.34200000
H        4.39720000      -1.52900000      -2.39800000
H        2.69420000      -0.67430000      -0.46630000
