22
Properties=species:S:1:pos:R:3 gdb_73931=T pbc="F F F"
C       -0.17610000       1.39350000      -0.43810000
C       -0.10130000      -0.08320000      -0.20360000
C       -1.09460000      -0.93600000       0.08990000
C       -0.56360000      -2.33050000       0.37870000
C        0.88520000      -2.28330000      -0.15820000
C        1.24460000      -0.78050000      -0.19160000
C       -2.54440000      -0.65140000       0.24610000
C       -3.32420000       0.12400000      -0.75240000
N       -3.52630000      -1.33120000      -0.63490000
H        0.46080000       1.92710000       0.27960000
H        0.20030000       1.65730000      -1.43520000
H       -1.19160000       1.78020000      -0.33880000
H       -0.59340000      -2.52970000       1.46040000
H       -1.16330000      -3.12040000      -0.08790000
H        1.58240000      -2.87630000       0.43900000
H        0.90890000      -2.68630000      -1.17590000
H        1.86610000      -0.51110000      -1.05460000
H        1.81580000      -0.47440000       0.69800000
H       -2.89470000      -0.62230000       1.27870000
H       -4.16780000       0.72960000      -0.43220000
H       -2.80210000       0.50160000      -1.62630000
H       -3.02000000      -1.79050000      -1.39000000
