18
Properties=species:S:1:pos:R:3 gdb_130205=T pbc="F F F"
N        0.41150000       1.31760000       0.49090000
C        0.24540000      -0.01980000       0.15900000
N       -0.96920000      -0.50830000      -0.08450000
N       -0.76000000      -1.83310000      -0.29570000
C        0.53810000      -2.18130000      -0.18480000
C        1.25180000      -1.03380000       0.10350000
C        2.74640000      -0.94050000       0.24360000
C        3.27240000      -0.11190000       1.41850000
O        3.27660000       1.26640000       1.03540000
H        1.35620000       1.65640000       0.36310000
H       -0.30020000       1.91620000       0.09760000
H       -1.54830000      -2.42450000      -0.48630000
H        0.87080000      -3.19890000      -0.32580000
H        3.14600000      -1.95650000       0.33960000
H        3.20730000      -0.51980000      -0.66180000
H        2.64790000      -0.27220000       2.30720000
H        4.29820000      -0.42800000       1.65870000
H        3.38210000       1.79890000       1.82960000
