19
Properties=species:S:1:pos:R:3 gdb_26686=T pbc="F F F"
C        0.04630000       1.53040000       0.09950000
C        0.04340000       0.04370000      -0.00420000
C        0.04060000      -0.77650000      -1.11020000
O        0.04040000      -0.30840000      -2.40000000
C        0.03860000      -2.14010000      -0.69040000
C        0.03550000      -3.34770000      -1.57490000
C        0.04040000      -2.11270000       0.69380000
N        0.03970000      -3.12290000       1.68660000
N        0.04330000      -0.80070000       1.08940000
H        0.93300000       1.91440000       0.62130000
H        0.04340000       1.95920000      -0.90520000
H       -0.83520000       1.91720000       0.62770000
H        0.03330000      -1.06360000      -2.99440000
H        0.91760000      -3.39320000      -2.22830000
H        0.03520000      -4.26370000      -0.97600000
H       -0.84900000      -3.39090000      -2.22540000
H        0.85560000      -3.72300000       1.62040000
H       -0.77830000      -3.72020000       1.62210000
H        0.04490000      -0.52120000       2.05510000
