14
Properties=species:S:1:pos:R:3 gdb_27429=T pbc="F F F"
C       -0.30850000       1.43000000       0.14580000
C        0.02760000      -0.01060000      -0.11150000
N       -0.22390000      -0.53800000      -1.25360000
C        0.10340000      -1.87950000      -1.47570000
O        0.86950000      -2.26720000      -2.31260000
N       -0.66590000      -2.78040000      -0.68800000
C       -0.43190000      -2.78910000       0.56910000
C        0.47080000      -1.85980000       1.27080000
N        0.67520000      -0.62730000       0.97160000
H        0.61130000       1.99550000       0.32540000
H       -0.84160000       1.84900000      -0.70670000
H       -0.91800000       1.52060000       1.05090000
H       -0.94060000      -3.53560000       1.18480000
H        0.96870000      -2.24020000       2.16620000
