23
Properties=species:S:1:pos:R:3 gdb_108311=T pbc="F F F"
C       -0.04340000       1.45770000      -0.27290000
C        0.17880000      -0.05730000      -0.18440000
C        0.63060000      -0.48840000       1.19030000
C        2.05520000      -0.13220000       1.69660000
C        2.26700000      -1.62290000       2.12510000
C        2.72140000      -1.91140000       3.54930000
C        0.80620000      -1.95540000       1.69360000
C       -0.31120000      -1.59310000       2.68340000
O       -0.36750000      -0.22670000       2.21470000
H        0.88400000       2.00830000      -0.08230000
H       -0.40530000       1.74510000      -1.26440000
H       -0.78160000       1.77650000       0.46810000
H       -0.75170000      -0.58390000      -0.42940000
H        0.92910000      -0.37630000      -0.91940000
H        2.74990000       0.22220000       0.92990000
H        2.03510000       0.58790000       2.51830000
H        2.95370000      -2.11280000       1.42710000
H        2.09140000      -1.40400000       4.28700000
H        2.69690000      -2.98510000       3.76780000
H        3.74850000      -1.56350000       3.70470000
H        0.65360000      -2.83960000       1.07380000
H       -1.25900000      -2.11590000       2.49960000
H       -0.08090000      -1.65780000       3.75370000
