14
Properties=species:S:1:pos:R:3 gdb_25890=T pbc="F F F"
N       -0.14400000       1.31780000       0.05050000
C        0.02560000      -0.03180000      -0.00610000
O        1.11450000      -0.58000000      -0.07110000
C       -1.24310000      -0.79250000       0.01760000
C       -1.36560000      -2.15190000      -0.02850000
N       -2.72640000      -2.39690000       0.01860000
C       -3.33900000      -1.18400000       0.08960000
O       -4.67810000      -1.12300000       0.14740000
N       -2.49740000      -0.18920000       0.09220000
H        0.66740000       1.91070000       0.04210000
H       -1.06890000       1.70940000       0.10580000
H       -0.63040000      -2.93450000      -0.08850000
H       -3.18880000      -3.29020000       0.00410000
H       -4.91050000      -0.18720000       0.19250000
