16
Properties=species:S:1:pos:R:3 gdb_64996=T pbc="F F F"
O        0.32150000       1.30270000       0.01080000
C        0.09180000      -0.07170000      -0.01470000
C       -0.58350000      -0.72430000       1.18890000
C       -1.34610000      -0.48770000      -0.08630000
C        1.11310000      -0.88460000      -0.73470000
N        0.88210000      -2.00560000      -1.26470000
O        2.36260000      -0.26320000      -0.65990000
C        3.14820000      -0.22200000      -1.77730000
O        4.26170000       0.19440000      -1.74640000
H        1.17140000       1.45500000       0.44010000
H       -0.29920000      -1.73960000       1.43900000
H       -0.77560000      -0.06310000       2.02620000
H       -2.05660000       0.33020000      -0.10320000
H       -1.58090000      -1.33960000      -0.71150000
H        1.72130000      -2.46730000      -1.61250000
H        2.62150000      -0.59170000      -2.67250000
