25
Properties=species:S:1:pos:R:3 gdb_121232=T pbc="F F F"
C       -0.02730000       1.57330000      -0.15780000
C        0.12420000       0.05070000      -0.10190000
C        0.57850000      -0.45690000       1.27210000
C        0.73830000      -1.97030000       1.32330000
C        1.86870000      -2.65970000       0.50280000
C        2.10410000      -3.62120000       1.69890000
C        1.31860000      -2.62890000       2.60700000
O        2.14670000      -1.71100000       3.28910000
C        2.72910000      -2.24080000       4.45620000
H        0.92090000       2.07290000       0.07010000
H       -0.35100000       1.90870000      -1.14840000
H       -0.76660000       1.92420000       0.57100000
H       -0.83080000      -0.42270000      -0.36800000
H        0.84390000      -0.27270000      -0.86530000
H        1.52920000       0.01350000       1.54750000
H       -0.14680000      -0.14170000       2.03490000
H       -0.22060000      -2.45210000       1.09550000
H        1.59900000      -3.10610000      -0.45700000
H        2.71810000      -1.98770000       0.35010000
H        1.57710000      -4.57260000       1.58330000
H        3.13840000      -3.82600000       1.98550000
H        0.59540000      -3.06860000       3.31080000
H        1.96310000      -2.56870000       5.17700000
H        3.38660000      -3.09750000       4.24450000
H        3.32600000      -1.44670000       4.91170000
