21
Properties=species:S:1:pos:R:3 gdb_72880=T pbc="F F F"
C       -0.18160000       1.50760000       0.33510000
C        0.05830000       0.04360000       0.07950000
C       -1.14500000      -0.93570000      -0.02150000
C       -0.38230000      -1.91280000       0.89420000
C       -0.97750000      -2.71320000       2.01500000
C       -0.35110000      -3.41200000       0.82960000
C        0.81420000      -0.96220000       1.01180000
C        1.81880000      -1.05390000      -0.14670000
O        1.01670000      -0.19020000      -0.98490000
H        0.75980000       2.02930000       0.53220000
H       -0.64880000       1.97090000      -0.54160000
H       -0.84870000       1.65050000       1.19120000
H       -2.07390000      -0.55220000       0.41350000
H       -1.33650000      -1.27410000      -1.04310000
H       -0.44790000      -2.74200000       2.96240000
H       -2.05910000      -2.73220000       2.10880000
H       -1.00790000      -3.90510000       0.12000000
H        0.60040000      -3.91370000       0.97670000
H        1.18980000      -0.72350000       2.00760000
H        2.79940000      -0.60550000       0.06060000
H        1.96550000      -2.04730000      -0.58840000
