18
Properties=species:S:1:pos:R:3 gdb_124858=T pbc="F F F"
C        0.02020000       1.49710000      -0.14380000
C       -0.00960000      -0.01350000      -0.02430000
C        1.30070000      -0.77700000      -0.12450000
C        0.61190000      -0.65840000       1.20360000
C       -1.21430000      -0.66550000      -0.59080000
N       -1.40610000      -1.98060000      -0.57330000
N       -2.60820000      -2.10690000      -1.18510000
C       -3.08220000      -0.89870000      -1.53830000
N       -2.22970000       0.04070000      -1.18000000
H        0.93950000       1.89220000       0.29860000
H       -0.02220000       1.81300000      -1.19040000
H       -0.83240000       1.95230000       0.36870000
H        1.27390000      -1.73870000      -0.62310000
H        2.19940000      -0.19370000      -0.29600000
H        1.03510000       0.00660000       1.94920000
H        0.12160000      -1.54040000       1.59850000
H       -3.01250000      -3.01970000      -1.31350000
H       -4.02690000      -0.75480000      -2.04080000
