17
Properties=species:S:1:pos:R:3 gdb_47777=T pbc="F F F"
O       -0.05120000      -0.09330000       0.14220000
C       -0.05350000       1.11710000       0.07190000
N       -1.19770000       1.84500000      -0.07940000
C       -1.36280000       3.28940000       0.04830000
C       -0.07130000       4.02000000      -0.30890000
C        1.10500000       3.40980000       0.45290000
C        1.26550000       1.92730000       0.05070000
C        2.28490000       1.25960000       0.85890000
N        3.11880000       0.79840000       1.51130000
H       -2.02990000       1.27190000      -0.05040000
H       -2.17700000       3.60390000      -0.61270000
H       -1.66100000       3.55040000       1.07490000
H        0.10760000       3.95060000      -1.38880000
H       -0.17970000       5.08070000      -0.06510000
H        2.03570000       3.94570000       0.24780000
H        0.92970000       3.47590000       1.53280000
H        1.60090000       1.88510000      -0.99520000
