19
Properties=species:S:1:pos:R:3 gdb_37493=T pbc="F F F"
C       -0.05310000       1.55890000      -0.03630000
C        1.47350000       1.38240000      -0.01930000
C        1.28340000       0.04700000       0.80590000
C       -0.06980000       0.01620000       0.01410000
C        0.61200000      -0.46890000      -1.27600000
C        1.46250000      -1.62520000      -0.83500000
C        2.20180000      -1.00800000       0.15390000
C        3.14150000      -0.19490000      -0.78080000
C        1.88110000       0.65660000      -1.30630000
H       -0.42690000       2.00640000       0.88910000
H       -0.51660000       2.05070000      -0.89840000
H        2.15140000       2.16680000       0.31980000
H        1.25650000       0.13030000       1.89060000
H       -0.94510000      -0.54740000       0.33720000
H        0.00770000      -0.55310000      -2.17980000
H        1.93920000      -2.27140000      -1.57080000
H        3.87780000       0.45530000      -0.29520000
H        3.63630000      -0.78850000      -1.55090000
H        2.00910000       1.28250000      -2.19470000
