18
Properties=species:S:1:pos:R:3 gdb_13892=T pbc="F F F"
C        0.53190000       0.39040000      -0.87380000
C        0.04730000      -0.23650000       0.43150000
O       -0.04060000       0.70510000       1.49170000
C       -1.30770000      -0.93350000       0.28780000
O       -2.28300000       0.01870000      -0.08430000
C       -3.30080000      -0.72780000      -0.73260000
C       -2.50760000      -1.82120000      -1.46870000
O       -1.29220000      -1.92060000      -0.72850000
H        1.49190000       0.88560000      -0.70970000
H        0.65230000      -0.37480000      -1.64510000
H       -0.18820000       1.13110000      -1.23460000
H        0.76660000      -0.99140000       0.76760000
H       -0.75420000       1.31260000       1.26300000
H       -1.59000000      -1.39620000       1.25040000
H       -3.99240000      -1.16360000       0.00350000
H       -3.85690000      -0.06100000      -1.39460000
H       -3.02640000      -2.78610000      -1.47370000
H       -2.27990000      -1.53710000      -2.50320000
