18
Properties=species:S:1:pos:R:3 gdb_115560=T pbc="F F F"
O        0.04030000       1.33780000      -0.57040000
C        0.15600000      -0.02600000      -0.21610000
C       -1.20540000      -0.52970000       0.26550000
N       -2.22650000      -0.30790000      -0.80620000
C       -2.34430000      -1.77720000      -1.03540000
C       -1.43860000      -2.07650000       0.20650000
O       -0.25470000      -2.81180000      -0.03610000
C       -2.17270000      -2.60880000       1.34650000
C       -2.77270000      -3.07680000       2.27810000
H       -0.71680000       1.36720000      -1.17300000
H        0.50650000      -0.63760000      -1.05900000
H        0.90040000      -0.10050000       0.58170000
H       -1.45550000      -0.06320000       1.22190000
H       -3.08580000       0.06900000      -0.42290000
H       -3.35970000      -2.17920000      -1.00130000
H       -1.85890000      -2.08710000      -1.96600000
H       -0.39690000      -3.71890000       0.25220000
H       -3.29980000      -3.48130000       3.10710000
