13
Properties=species:S:1:pos:R:3 gdb_24478=T pbc="F F F"
O       -0.02250000       1.31650000       0.00960000
C        1.10800000       2.05720000       0.00260000
C        2.35570000       1.52230000      -0.01250000
C        2.45540000       0.11130000      -0.02120000
N        3.48950000      -0.71660000      -0.03590000
C        2.87270000      -1.95280000      -0.03670000
N        1.54850000      -1.99970000      -0.02410000
C        1.22330000      -0.66550000      -0.01350000
C        0.02690000      -0.02660000       0.00170000
H        0.87820000       3.11340000       0.01070000
H        3.22290000       2.17070000      -0.01730000
H        3.47110000      -2.85650000      -0.04750000
H       -0.95580000      -0.47870000       0.00870000
