17
Properties=species:S:1:pos:R:3 gdb_10410=T pbc="F F F"
C       -0.25990000       1.37790000       0.00370000
N        0.10850000      -0.03550000       0.04320000
C        0.86500000      -0.44760000       1.21190000
C        0.08900000      -0.52540000       2.58200000
N       -0.19270000      -1.94710000       2.28420000
C        0.93130000      -2.00170000       1.32400000
C        2.14720000       0.25480000       1.26480000
N        3.16130000       0.80410000       1.34030000
H        0.64520000       1.98820000      -0.06900000
H       -0.85900000       1.55860000      -0.89230000
H       -0.83480000       1.72500000       0.87800000
H       -0.72200000      -0.61700000      -0.00630000
H        0.75080000      -0.35280000       3.44060000
H       -0.79690000       0.11110000       2.67400000
H       -0.12270000      -2.57860000       3.07370000
H        0.72660000      -2.53920000       0.39290000
H        1.88680000      -2.34290000       1.74120000
