14
Properties=species:S:1:pos:R:3 gdb_20613=T pbc="F F F"
C       -0.00890000       1.54330000       0.06330000
C        0.00540000       0.04670000       0.00500000
C       -0.00370000      -0.78000000      -1.11930000
N        0.04100000      -2.05940000      -0.65070000
N        0.07500000      -2.13230000       0.67580000
C        0.05510000      -0.85830000       1.08330000
C       -0.05420000      -0.52130000      -2.54870000
O       -0.04810000      -1.40190000      -3.38600000
H        1.00670000       1.95480000       0.09790000
H       -0.50990000       1.98230000      -0.80340000
H       -0.52970000       1.89140000       0.95990000
H        0.03890000      -2.89120000      -1.22010000
H        0.07260000      -0.63530000       2.14040000
H       -0.10040000       0.54930000      -2.83370000
