19
Properties=species:S:1:pos:R:3 gdb_115999=T pbc="F F F"
O        0.88690000      -0.53560000      -1.02250000
C        0.16860000      -0.28560000       0.17580000
C       -1.35500000      -0.41320000      -0.01370000
C       -1.79300000      -1.83730000      -0.45130000
C       -2.31270000      -2.53230000       0.83620000
C       -2.59550000      -1.37900000       1.75950000
C       -2.09440000      -0.22330000       1.29690000
C       -2.21480000       1.06000000       1.98970000
O       -1.73080000       2.09970000       1.59370000
H        0.70220000       0.18750000      -1.63060000
H        0.51640000      -1.03920000       0.89190000
H        0.40240000       0.70360000       0.59040000
H       -1.65790000       0.34790000      -0.74350000
H       -2.60750000      -1.76750000      -1.17830000
H       -0.97340000      -2.37450000      -0.93280000
H       -3.19810000      -3.15320000       0.65970000
H       -1.56440000      -3.20040000       1.28590000
H       -3.12740000      -1.48460000       2.70050000
H       -2.80540000       1.02570000       2.93260000
