22
Properties=species:S:1:pos:R:3 gdb_17966=T pbc="F F F"
C       -0.03540000       1.46100000      -0.07330000
C        1.34410000       2.15560000       0.02660000
C        1.77020000       2.63990000       1.42370000
C        1.71630000       1.57690000       2.54570000
C        2.41020000       0.29630000       2.17490000
C        1.81450000      -0.73310000       1.57110000
C        0.35060000      -0.80710000       1.20570000
C       -0.03420000      -0.08080000      -0.10360000
H       -0.69140000       1.80970000       0.73660000
H       -0.51940000       1.79130000      -1.00000000
H        2.11100000       1.48350000      -0.37420000
H        1.34550000       3.03420000      -0.62930000
H        2.79070000       3.03740000       1.35040000
H        1.13590000       3.48330000       1.72610000
H        2.16200000       2.00360000       3.45170000
H        0.66690000       1.37390000       2.78700000
H        3.48070000       0.24590000       2.36540000
H        2.41970000      -1.59360000       1.29220000
H        0.06700000      -1.86080000       1.10460000
H       -0.26710000      -0.40570000       2.01940000
H       -1.04360000      -0.41050000      -0.38160000
H        0.62890000      -0.41980000      -0.91060000
