19
Properties=species:S:1:pos:R:3 gdb_17434=T pbc="F F F"
C        0.02440000       1.59830000       0.01850000
C        0.08660000       0.07580000       0.04800000
C        1.08430000      -0.70440000      -0.80790000
C        1.21900000      -1.77010000       0.20840000
N        2.38640000      -0.88610000      -0.06520000
C        2.16700000      -0.22320000       1.26110000
C        0.70330000      -0.70180000       1.26220000
C       -0.08500000      -0.93300000       2.52370000
H        1.00880000       2.05960000       0.13320000
H       -0.38810000       1.94510000      -0.93540000
H       -0.62470000       1.98210000       0.81400000
H       -0.91170000      -0.33830000      -0.13950000
H        1.14610000      -0.77610000      -1.88640000
H        1.24000000      -2.85110000       0.15930000
H        2.77740000      -0.74520000       2.00420000
H        2.38310000       0.85040000       1.30250000
H       -0.29140000       0.01520000       3.03460000
H       -1.04770000      -1.41150000       2.31330000
H        0.46140000      -1.57350000       3.22500000
