15
Properties=species:S:1:pos:R:3 gdb_16733=T pbc="F F F"
N        0.68190000      -0.88910000       1.00350000
C        0.37740000       0.13730000       0.56800000
C       -0.03490000       1.40930000      -0.02430000
C       -0.88310000       2.26840000       0.96850000
C        0.11880000       3.22600000       1.57780000
O        1.31280000       2.58100000       2.03630000
C        1.34150000       3.24490000       0.76730000
C        1.19100000       2.30050000      -0.40630000
H       -0.62110000       1.16490000      -0.91440000
H       -1.64370000       2.83450000       0.41960000
H       -1.39340000       1.65100000       1.71140000
H       -0.21590000       4.07490000       2.16820000
H        1.99720000       4.10910000       0.70130000
H        2.08710000       1.70490000      -0.59560000
H        0.96940000       2.87490000      -1.31250000
