19
Properties=species:S:1:pos:R:3 gdb_77722=T pbc="F F F"
C       -0.11890000       1.49420000      -0.01800000
C        0.06830000      -0.00390000       0.05190000
C        1.37510000      -0.72290000      -0.20010000
C        2.64390000      -0.02870000       0.33180000
C        2.00820000      -0.04100000       1.76890000
C        0.76550000      -0.73480000       1.17800000
O        0.37890000      -2.05760000       1.43490000
C        1.10790000      -2.84280000       0.48740000
O        1.31360000      -2.03940000      -0.67800000
H        0.74700000       2.03770000       0.36970000
H       -0.27530000       1.81470000      -1.05320000
H       -0.99210000       1.80070000       0.56700000
H       -0.76540000      -0.58980000      -0.32200000
H        3.51920000      -0.67660000       0.25670000
H        2.88890000       0.94220000      -0.10790000
H        2.54550000      -0.69550000       2.45780000
H        1.84140000       0.92190000       2.26000000
H        2.07710000      -3.15040000       0.91350000
H        0.51370000      -3.71950000       0.21700000
