18
Properties=species:S:1:pos:R:3 gdb_75970=T pbc="F F F"
C       -0.02280000       1.46920000      -0.00220000
N        0.01370000       0.00260000       0.01330000
C        0.06820000      -0.62630000      -1.23770000
O        0.07710000       0.03770000      -2.25090000
C        0.09730000      -2.14390000      -1.25670000
C        0.71440000      -2.74490000       0.00380000
C        0.00160000      -2.17240000       1.22650000
C       -0.02330000      -0.65360000       1.25390000
O       -0.08770000      -0.03400000       2.29260000
H        0.86590000       1.85770000      -0.50350000
H       -0.90000000       1.81330000      -0.55410000
H       -0.06160000       1.80900000       1.02950000
H       -0.94140000      -2.48540000      -1.36520000
H        0.62000000      -2.43530000      -2.16980000
H        0.63450000      -3.83560000      -0.01090000
H        1.78310000      -2.50430000       0.04800000
H       -1.04390000      -2.51030000       1.24320000
H        0.44900000      -2.49190000       2.16960000
