20
Properties=species:S:1:pos:R:3 gdb_105477=T pbc="F F F"
C        0.13080000       1.47310000      -0.05950000
N        0.00940000       0.03190000       0.14000000
C       -1.35000000      -0.48850000       0.04420000
C       -1.96240000      -0.57970000      -1.40140000
O       -1.68670000      -1.99120000      -1.46570000
C       -1.34310000      -2.03990000      -0.06950000
C       -2.21650000       0.08850000       1.06180000
C       -2.96710000       0.54380000       1.88640000
C       -3.86560000       1.09470000       2.89080000
H        1.18800000       1.74900000      -0.01700000
H       -0.28060000       1.83820000      -1.01650000
H       -0.39000000       1.99410000       0.74830000
H        0.58250000      -0.45590000      -0.54210000
H       -3.03620000      -0.36540000      -1.45780000
H       -1.43130000      -0.01550000      -2.17760000
H       -0.36830000      -2.50750000       0.11210000
H       -2.11110000      -2.53820000       0.53270000
H       -4.71110000       0.42330000       3.07630000
H       -3.34840000       1.24800000       3.84420000
H       -4.27330000       2.06100000       2.57420000
