19
Properties=species:S:1:pos:R:3 gdb_84582=T pbc="F F F"
C        0.09050000       1.62520000      -0.15530000
C        0.02950000       0.09590000      -0.03470000
C        0.64610000      -0.64910000      -1.20310000
C        1.45810000      -1.64130000      -0.83860000
C        1.59210000      -1.76530000       0.65580000
C        2.92280000      -1.19860000       1.25040000
C        2.15970000       0.10070000       1.56210000
O        2.49700000       1.18180000       1.95070000
C        0.79720000      -0.51300000       1.16920000
H        1.11860000       1.97950000      -0.26140000
H       -0.47980000       1.95950000      -1.02840000
H       -0.33520000       2.10660000       0.73000000
H       -1.03120000      -0.18480000       0.04540000
H        0.41430000      -0.38130000      -2.22940000
H        1.98730000      -2.29650000      -1.52300000
H        1.30320000      -2.74690000       1.03960000
H        3.25870000      -1.70050000       2.16450000
H        3.77560000      -1.09860000       0.57330000
H        0.16600000      -0.66190000       2.04970000
