13
Properties=species:S:1:pos:R:3 gdb_128732=T pbc="F F F"
C       -0.00690000       1.40120000      -0.00520000
O        0.00480000      -0.03360000      -0.00440000
C        0.59820000      -0.60400000      -1.04170000
N        1.16000000       0.01940000      -2.04080000
O        1.63390000      -0.98540000      -2.86100000
N        1.36120000      -2.21810000      -2.36230000
C        0.71910000      -2.02430000      -1.23390000
C        0.25300000      -3.06020000      -0.39740000
C       -0.15700000      -3.91810000       0.33790000
H        1.01510000       1.79120000      -0.00580000
H       -0.53500000       1.77810000      -0.88580000
H       -0.52700000       1.69190000       0.90670000
H       -0.51650000      -4.68150000       0.98330000
