18
Properties=species:S:1:pos:R:3 gdb_33754=T pbc="F F F"
C        0.04060000      -1.19460000       0.00450000
C        0.02520000       0.00850000       0.01050000
C        0.00150000       1.44530000       0.00450000
C       -0.67490000       2.44070000       0.99120000
N       -0.04800000       3.40130000      -0.03700000
C        1.17450000       2.46730000       0.04110000
C       -0.56020000       2.40480000      -1.06190000
C       -0.45590000       2.50350000      -2.53540000
C       -1.82070000       2.48390000      -1.83430000
H        0.05450000      -2.25660000       0.00060000
H       -1.76580000       2.46890000       1.01040000
H       -0.24140000       2.52950000       1.99030000
H        1.73220000       2.55790000       0.97650000
H        1.82450000       2.52060000      -0.83410000
H       -0.12820000       3.44660000      -2.96040000
H       -0.16240000       1.62270000      -3.09750000
H       -2.42840000       1.59010000      -1.93340000
H       -2.37840000       3.41420000      -1.80440000
