17
Properties=species:S:1:pos:R:3 gdb_98031=T pbc="F F F"
C       -0.00650000       1.36510000      -0.23350000
O       -0.04900000      -0.06730000      -0.22350000
C       -1.23300000      -0.59570000       0.15050000
O       -2.20000000       0.05990000       0.45850000
C       -1.18700000      -2.03310000       0.13230000
C       -1.22550000      -3.23990000       0.14150000
C       -1.26470000      -4.66630000       0.15040000
C       -2.10150000      -5.39230000       1.19920000
C       -2.55490000      -5.38870000      -0.22470000
H        1.00240000       1.62640000      -0.55270000
H       -0.74580000       1.76930000      -0.92980000
H       -0.20910000       1.76520000       0.76330000
H       -0.34170000      -5.15590000      -0.14460000
H       -1.67930000      -6.30170000       1.61080000
H       -2.63850000      -4.77540000       1.90930000
H       -3.40260000      -4.76950000      -0.49090000
H       -2.44960000      -6.29570000      -0.80880000
