21
Properties=species:S:1:pos:R:3 gdb_120404=T pbc="F F F"
C       -0.05450000       1.47750000       0.09910000
C       -0.21460000      -0.01480000      -0.13520000
O        0.85790000      -0.45760000      -0.94810000
C        0.84350000      -1.83550000      -1.21970000
C       -0.13800000      -2.23280000      -2.37250000
C        1.08350000      -2.24030000      -3.30960000
O        1.22300000      -2.19710000      -4.49680000
C        2.06350000      -2.20670000      -2.12320000
C        3.28740000      -1.30570000      -2.18950000
H        0.89890000       1.68840000       0.59150000
H       -0.07690000       2.01980000      -0.85040000
H       -0.86410000       1.85220000       0.73230000
H       -0.20770000      -0.56330000       0.82160000
H       -1.18030000      -0.22770000      -0.62080000
H        0.74280000      -2.41290000      -0.29110000
H       -0.57760000      -3.22930000      -2.26050000
H       -0.92870000      -1.51920000      -2.61570000
H        2.35550000      -3.24400000      -1.91000000
H        2.99230000      -0.26140000      -2.30650000
H        3.89180000      -1.38890000      -1.28140000
H        3.90940000      -1.58920000      -3.04350000
