13
Properties=species:S:1:pos:R:3 gdb_25189=T pbc="F F F"
N       -0.05090000       1.22500000      -0.30440000
C       -0.02440000      -0.02160000      -0.05550000
C        1.20840000      -0.83230000       0.15100000
N        1.51490000      -1.91220000      -0.45740000
C        0.65410000      -2.51480000      -1.36170000
C       -0.68850000      -2.50920000      -1.38040000
O       -1.55360000      -1.90720000      -0.51810000
C       -1.35450000      -0.72140000       0.15140000
O       -2.20500000      -0.31890000       0.88130000
H        0.90140000       1.60080000      -0.36100000
H        1.92660000      -0.42760000       0.86760000
H        1.14250000      -3.14030000      -2.10150000
H       -1.23190000      -3.11100000      -2.09910000
