15
Properties=species:S:1:pos:R:3 gdb_61350=T pbc="F F F"
C       -0.03260000       1.54440000      -0.01980000
C        0.00730000       0.01480000      -0.00050000
O        0.64180000      -0.47210000      -1.21990000
C       -0.17590000      -0.65600000      -2.27240000
O       -1.36340000      -0.44170000      -2.27980000
C        0.56530000      -1.15180000      -3.41100000
C        1.13180000      -1.56250000      -4.38740000
C        0.76920000      -0.51870000       1.12080000
C        1.37710000      -0.92860000       2.07160000
H        0.97810000       1.94860000      -0.11150000
H       -0.64230000       1.88490000      -0.85950000
H       -0.47480000       1.91280000       0.90950000
H       -1.01390000      -0.37750000       0.01490000
H        1.63420000      -1.92610000      -5.25060000
H        1.91370000      -1.30200000       2.90880000
