15
Properties=species:S:1:pos:R:3 gdb_9100=T pbc="F F F"
O       -0.30220000       1.31180000      -0.02510000
C        0.14740000      -0.01250000      -0.14710000
C        1.14930000      -0.12740000      -1.31220000
N        0.55080000       0.35290000      -2.53890000
C        0.38450000      -0.43400000      -3.63630000
O        0.76460000      -1.58140000      -3.73760000
C        0.77600000      -0.48250000       1.14800000
O        0.87820000       0.25220000       2.10060000
H       -0.05180000       1.59280000       0.86980000
H       -0.70100000      -0.68440000      -0.36370000
H        2.04360000       0.46040000      -1.07020000
H        1.44460000      -1.16540000      -1.48480000
H        0.13880000       1.27300000      -2.52050000
H       -0.14030000       0.10440000      -4.44910000
H        1.14080000      -1.52880000       1.17210000
