21
Properties=species:S:1:pos:R:3 gdb_41890=T pbc="F F F"
C        0.04870000       1.58790000      -0.17780000
C        1.43400000       2.16780000       0.20830000
C        2.30830000       1.08470000       0.88230000
C        1.43870000       0.31490000       1.88750000
O        0.33890000      -0.35960000       1.28470000
C       -0.01800000       0.06040000      -0.03080000
C        0.78330000      -0.72810000      -1.08520000
C        2.27880000      -0.59830000      -0.99820000
C        2.95060000       0.16670000      -0.13930000
H       -0.72220000       2.01040000       0.47520000
H       -0.22720000       1.86260000      -1.20120000
H        1.95500000       2.56080000      -0.66890000
H        1.30150000       3.00690000       0.90030000
H        3.10210000       1.57650000       1.45480000
H        2.03080000      -0.44600000       2.40940000
H        1.06340000       1.02210000       2.64560000
H       -1.06640000      -0.24130000      -0.13910000
H        0.51860000      -1.78940000      -0.98010000
H        0.43720000      -0.43970000      -2.08970000
H        2.84030000      -1.21010000      -1.70230000
H        4.03730000       0.15970000      -0.17110000
