15
Properties=species:S:1:pos:R:3 gdb_125773=T pbc="F F F"
C       -0.01770000       1.54440000       0.01980000
C       -0.00220000       0.04970000       0.03320000
N       -0.05870000      -0.61360000      -1.09790000
O       -0.02540000      -1.97680000      -0.74390000
C        0.04940000      -2.06270000       0.58400000
N        0.09480000      -3.31170000       1.17660000
C        0.07370000      -4.55860000       0.57350000
O        0.01020000      -4.77720000      -0.60600000
C        0.06890000      -0.82310000       1.15490000
H        0.88850000       1.94890000       0.48220000
H       -0.07840000       1.90710000      -1.00780000
H       -0.87470000       1.93150000       0.58040000
H        0.15070000      -3.30260000       2.18370000
H        0.12460000      -5.34940000       1.34740000
H        0.12470000      -0.57060000       2.20050000
