19
Properties=species:S:1:pos:R:3 gdb_6488=T pbc="F F F"
C        1.66210000       1.15080000      -2.11630000
C        1.46730000      -0.35900000      -2.06860000
O        2.33210000      -1.14000000      -2.41880000
N        0.24770000      -0.76700000      -1.59480000
C       -0.06580000      -2.15240000      -1.34650000
C        0.63420000      -2.76450000      -0.14900000
C       -1.47900000      -2.56200000      -1.68190000
C       -0.33230000      -3.00440000      -2.55940000
H        0.72150000       1.70770000      -2.14630000
H        2.22460000       1.46930000      -1.23230000
H        2.25960000       1.39700000      -2.99540000
H       -0.37060000      -0.07170000      -1.20730000
H        0.37770000      -2.23050000       0.77320000
H        0.34600000      -3.81250000      -0.02360000
H        1.71770000      -2.71980000      -0.28870000
H       -1.95600000      -3.29320000      -1.03860000
H       -2.14830000      -1.80310000      -2.07340000
H       -0.22500000      -2.53580000      -3.52940000
H       -0.01980000      -4.04170000      -2.52120000
