23
Properties=species:S:1:pos:R:3 gdb_113922=T pbc="F F F"
C        0.18310000       1.49670000       0.08820000
C        0.03630000      -0.02010000       0.05420000
C        0.15010000      -0.64640000       1.44590000
O       -1.22790000      -0.28010000      -0.55960000
C       -1.42210000      -1.59080000      -0.99210000
C       -2.19130000      -2.57530000      -0.14390000
C       -2.81540000      -1.97820000      -1.39060000
C       -3.94570000      -0.99260000      -1.25800000
O       -5.14940000      -1.72750000      -1.06040000
H        1.15410000       1.78160000       0.50380000
H        0.09670000       1.91200000      -0.91920000
H       -0.60200000       1.93910000       0.70980000
H        0.82600000      -0.44310000      -0.58960000
H        0.05170000      -1.73360000       1.40480000
H        1.12380000      -0.41060000       1.88760000
H       -0.63120000      -0.25340000       2.10490000
H       -0.60120000      -1.97710000      -1.59880000
H       -1.90010000      -3.62030000      -0.14760000
H       -2.57020000      -2.21020000       0.80420000
H       -2.90220000      -2.63380000      -2.25240000
H       -3.74430000      -0.31170000      -0.42010000
H       -4.00610000      -0.37750000      -2.17020000
H       -5.87570000      -1.09780000      -1.02820000
