20
Properties=species:S:1:pos:R:3 gdb_81073=T pbc="F F F"
C       -0.12260000       1.42040000      -0.38240000
N       -0.04290000       0.00290000      -0.04080000
C       -1.01250000      -0.55180000       0.99240000
C       -0.02630000      -1.73580000       1.13410000
C        0.80370000      -0.41970000       1.16070000
C       -0.25260000       0.15910000       2.14930000
C        2.28570000      -0.27610000       1.16870000
C        2.96250000       0.84750000       1.83270000
O        2.92420000      -0.44350000       2.43890000
H        0.79380000       1.70390000      -0.91040000
H       -0.95750000       1.55680000      -1.07790000
H       -0.26280000       2.12560000       0.45100000
H       -2.08660000      -0.58620000       0.80490000
H       -0.06390000      -2.30870000       2.06140000
H        0.10070000      -2.35000000       0.24230000
H       -0.34030000       1.24310000       2.21890000
H       -0.30450000      -0.29850000       3.13980000
H        2.79610000      -0.76660000       0.33840000
H        3.93970000       1.17010000       1.47620000
H        2.36940000       1.61320000       2.32970000
