17
Properties=species:S:1:pos:R:3 gdb_93177=T pbc="F F F"
C       -0.25070000       1.43960000       0.09080000
C       -0.07520000      -0.05480000      -0.12470000
C        0.92220000      -0.41230000      -1.21870000
C        1.02040000      -1.93250000      -1.35030000
C        1.30340000      -2.59010000      -0.01380000
O        1.79310000      -3.68080000       0.10120000
C        0.93870000      -1.80020000       1.28290000
O        1.20400000      -2.23420000       2.36570000
O        0.34220000      -0.59490000       1.15540000
H        0.70920000       1.90980000       0.32370000
H       -0.66000000       1.90520000      -0.81050000
H       -0.93560000       1.62580000       0.92140000
H       -1.04910000      -0.50640000      -0.36280000
H        0.60270000       0.03760000      -2.16390000
H        1.89890000       0.02000000      -0.96840000
H        0.06090000      -2.33640000      -1.70480000
H        1.78040000      -2.25940000      -2.06500000
