17
Properties=species:S:1:pos:R:3 gdb_79485=T pbc="F F F"
C        0.07010000       1.51950000      -0.16770000
N        0.03500000       0.06450000      -0.03460000
C       -1.10010000      -0.50120000       0.75740000
C       -0.26510000      -1.75100000       1.17450000
C       -0.63590000      -1.60390000       2.66160000
C       -0.52350000      -0.14440000       2.18150000
C        0.67140000      -0.49380000       1.19980000
C        2.08370000      -0.43620000       1.47340000
N        3.21550000      -0.37760000       1.70420000
H        1.07100000       1.82370000      -0.48800000
H       -0.63740000       1.81620000      -0.94790000
H       -0.18040000       2.06860000       0.75430000
H       -2.13630000      -0.46920000       0.42250000
H       -0.08990000      -2.63590000       0.56510000
H       -1.63540000      -1.94290000       2.94590000
H        0.10700000      -1.94000000       3.38910000
H       -0.64820000       0.77380000       2.75280000
