18
Properties=species:S:1:pos:R:3 gdb_45702=T pbc="F F F"
O        0.08040000      -0.00200000       0.01580000
C        0.01870000       1.20770000       0.01010000
C       -1.22840000       2.11970000       0.07280000
C       -0.66360000       3.52380000       0.07800000
C        0.66680000       3.42580000       0.00200000
C        1.89650000       4.28570000      -0.03400000
C        3.01250000       3.30020000       0.41310000
C        2.52120000       1.90710000      -0.05340000
N        1.08050000       2.08200000      -0.05060000
H       -1.86960000       1.90620000      -0.79110000
H       -1.81750000       1.87250000       0.96370000
H       -1.24460000       4.43130000       0.13610000
H        2.08110000       4.63740000      -1.05670000
H        1.82280000       5.16800000       0.60510000
H        3.99250000       3.55480000       0.00470000
H        3.09240000       3.30970000       1.50430000
H        2.88520000       1.66270000      -1.05970000
H        2.81740000       1.09500000       0.61520000
