19
Properties=species:S:1:pos:R:3 gdb_105357=T pbc="F F F"
O        0.16990000       1.36220000      -0.13860000
C        0.13570000      -0.03150000       0.09840000
C       -1.28610000      -0.59030000       0.04910000
C       -2.08310000      -0.49560000      -1.31780000
C       -2.29420000      -2.01090000      -1.29170000
C       -0.97110000      -2.71220000      -1.27980000
C       -1.48380000      -2.12120000       0.00550000
C       -2.15130000       0.01840000       1.12240000
O       -1.82580000       0.93450000       1.84230000
H       -0.29290000       1.76240000       0.60870000
H        0.74690000      -0.49580000      -0.68090000
H        0.58990000      -0.29180000       1.06770000
H       -3.00660000       0.08230000      -1.23250000
H       -1.49960000      -0.09220000      -2.14960000
H       -3.21280000      -2.51760000      -1.55870000
H       -1.01760000      -3.79580000      -1.31870000
H       -0.11530000      -2.28820000      -1.79810000
H       -1.66440000      -2.74070000       0.87630000
H       -3.16500000      -0.43450000       1.21030000
