16
Properties=species:S:1:pos:R:3 gdb_28963=T pbc="F F F"
C       -0.03720000       1.51720000      -0.00620000
C       -0.01120000       0.01410000       0.00760000
C       -0.02920000      -0.72230000      -1.17760000
N       -0.00840000      -2.05440000      -1.25640000
C        0.03300000      -2.72910000      -0.10480000
C        0.05460000      -2.11600000       1.14060000
C        0.03240000      -0.71740000       1.21160000
C        0.05370000      -0.05540000       2.47270000
C        0.07170000       0.50680000       3.53770000
H        0.84700000       1.93450000       0.48770000
H       -0.06970000       1.89760000      -1.03020000
H       -0.90890000       1.90450000       0.53220000
H       -0.06270000      -0.19040000      -2.12690000
H        0.04960000      -3.81350000      -0.18030000
H        0.08820000      -2.70570000       2.04910000
H        0.08760000       0.99950000       4.47850000
