17
Properties=species:S:1:pos:R:3 gdb_17619=T pbc="F F F"
C       -0.00650000       1.47340000       0.09850000
N        0.16720000       0.02930000       0.07620000
C        1.50490000      -0.44080000      -0.23880000
C       -0.92210000      -0.76640000       0.32490000
O       -2.00660000      -0.31970000       0.65440000
C       -0.73950000      -2.26700000       0.18630000
C       -1.32810000      -3.13250000       1.22780000
O       -1.94750000      -2.98550000      -0.03760000
H        0.27040000       1.90830000      -0.87000000
H       -1.05210000       1.68860000       0.31070000
H        0.62460000       1.92830000       0.87210000
H        2.23560000       0.21050000       0.25290000
H        1.67520000      -1.45060000       0.13240000
H        1.71140000      -0.42010000      -1.31810000
H        0.10180000      -2.64550000      -0.38700000
H       -0.87900000      -4.10380000       1.43150000
H       -1.85080000      -2.65360000       2.05320000
