14
Properties=species:S:1:pos:R:3 gdb_48462=T pbc="F F F"
O       -0.63270000       0.66460000       0.75360000
C        0.05750000       1.00130000      -0.17360000
C        1.22630000       1.95810000      -0.03850000
C        1.42970000       2.59790000       1.35300000
N        2.68170000       1.83860000       1.47970000
C        2.58400000       1.16010000       0.30480000
O        3.22350000       0.31810000      -0.24730000
C        1.40980000       2.83760000      -1.25110000
O        1.11980000       2.50110000      -2.36960000
H       -0.09930000       0.62930000      -1.20230000
H        1.57160000       3.68280000       1.35070000
H        0.65490000       2.30790000       2.06470000
H        3.29050000       1.67160000       2.26810000
H        1.86240000       3.83110000      -1.03750000
