14
Properties=species:S:1:pos:R:3 gdb_17606=T pbc="F F F"
N       -0.10880000       1.34700000      -0.09730000
C        0.10360000       0.01590000      -0.16900000
O        1.13120000      -0.53090000      -0.52190000
C       -1.13610000      -0.79440000       0.26610000
O       -2.16060000      -0.22970000       0.60090000
C       -0.99190000      -2.26800000       0.24590000
C       -1.45660000      -2.98860000       1.48310000
N       -2.23200000      -3.06340000       0.25850000
H        0.61970000       1.98820000      -0.36110000
H       -1.01150000       1.68020000       0.20030000
H       -0.15820000      -2.66290000      -0.31920000
H       -0.93310000      -3.89630000       1.76760000
H       -1.82560000      -2.37690000       2.30180000
H       -3.00960000      -2.40530000       0.32430000
