19
Properties=species:S:1:pos:R:3 gdb_108093=T pbc="F F F"
C        0.16140000       1.19500000       0.22560000
O       -0.20120000      -0.09600000      -0.24330000
C        0.53170000      -0.51600000      -1.32310000
C        0.42000000      -0.10010000      -2.79240000
C        1.31400000      -1.34300000      -3.04530000
O        2.60140000      -0.98380000      -2.46500000
C        1.96050000      -1.10820000      -1.19590000
C        0.82660000      -1.96520000      -1.67290000
C        0.23500000      -3.26930000      -1.25180000
H        1.22200000       1.23400000       0.50800000
H       -0.02750000       1.96640000      -0.53300000
H       -0.45620000       1.39940000       1.10270000
H       -0.59600000      -0.24880000      -3.16780000
H        0.82430000       0.86120000      -3.12440000
H        1.38760000      -1.82890000      -4.01590000
H        2.55000000      -1.11780000      -0.28790000
H        0.04090000      -3.26320000      -0.17440000
H       -0.71910000      -3.45990000      -1.75610000
H        0.90730000      -4.10590000      -1.47070000
