15
Properties=species:S:1:pos:R:3 gdb_45327=T pbc="F F F"
O        0.22640000       0.06200000      -0.62300000
C        0.12040000       1.14010000      -0.13460000
O       -0.93450000       1.66260000       0.55590000
C       -0.23280000       2.94030000       0.79570000
C       -0.00120000       3.22510000       2.27220000
N        1.06840000       2.47680000       2.91970000
C        2.04140000       2.09830000       2.19370000
N        2.18480000       2.27420000       0.82470000
C        0.99070000       2.41120000       0.02060000
H       -0.78640000       3.74350000       0.30440000
H        0.22240000       4.29840000       2.36620000
H       -0.93600000       3.05590000       2.81700000
H        2.89570000       1.61130000       2.66510000
H        2.91670000       1.72560000       0.39630000
H        1.21410000       2.90810000      -0.92560000
