17
Properties=species:S:1:pos:R:3 gdb_33223=T pbc="F F F"
O        0.04140000       1.35420000      -0.33940000
C       -0.04590000       0.00210000       0.05880000
C       -1.48260000      -0.48450000       0.11340000
O       -1.98980000      -0.37490000      -1.23070000
C       -3.29900000      -0.58660000      -1.40820000
C       -4.17630000      -0.04150000      -2.29130000
C       -5.41710000      -0.73170000      -2.06870000
C       -5.19640000      -1.62230000      -1.07230000
O       -3.88890000      -1.54940000      -0.65670000
H       -0.43540000       1.42320000      -1.17420000
H        0.53040000      -0.65730000      -0.60930000
H        0.39340000      -0.06810000       1.05920000
H       -1.53910000      -1.52420000       0.45340000
H       -2.08230000       0.14680000       0.77970000
H       -3.96580000       0.74300000      -2.99840000
H       -6.35050000      -0.56950000      -2.58470000
H       -5.80850000      -2.33630000      -0.54900000
