19
Properties=species:S:1:pos:R:3 gdb_114790=T pbc="F F F"
O        0.02250000       1.49430000       0.15330000
C        0.09620000       0.08330000       0.20380000
C       -1.28670000      -0.54210000       0.02680000
O       -1.88840000      -0.04220000      -1.18810000
C       -2.06810000      -1.14240000      -2.07330000
C       -0.70430000      -1.75010000      -2.53000000
C       -0.82840000      -2.73870000      -1.36720000
C       -2.30590000      -2.40260000      -1.20150000
C       -1.34670000      -2.05600000      -0.10590000
H       -0.49710000       1.69720000      -0.63440000
H        0.79020000      -0.31430000      -0.55200000
H        0.49460000      -0.18320000       1.18970000
H       -1.91870000      -0.20790000       0.86130000
H       -2.78710000      -0.85600000      -2.83930000
H       -0.80430000      -2.26720000      -3.48920000
H        0.14840000      -1.06630000      -2.57410000
H       -0.35470000      -3.71150000      -1.30490000
H       -3.18650000      -3.02400000      -1.11800000
H       -1.34410000      -2.65590000       0.79670000
