21
Properties=species:S:1:pos:R:3 gdb_80611=T pbc="F F F"
C       -0.14430000       1.54220000       0.03390000
C        0.03110000       0.02640000       0.02220000
O       -1.25210000      -0.60540000       0.05740000
C        0.92150000      -0.51340000      -1.12440000
C        1.14450000      -1.98450000      -0.67050000
C        1.95280000      -1.29930000       0.46670000
C        2.36290000      -0.24230000      -0.59910000
C        0.85310000      -0.55660000       1.23690000
O        1.44320000       0.40670000       2.09110000
H        0.80840000       2.07090000       0.09060000
H       -0.66140000       1.86730000      -0.87730000
H       -0.75880000       1.84800000       0.88690000
H       -1.73060000      -0.34440000      -0.73710000
H        0.61670000      -0.25360000      -2.14130000
H        0.26230000      -2.56970000      -0.40570000
H        1.78930000      -2.54120000      -1.35390000
H        2.68550000      -1.83450000       1.07050000
H        3.12560000      -0.61830000      -1.28490000
H        2.62790000       0.75830000      -0.25370000
H        0.20840000      -1.24100000       1.80290000
H        0.74420000       0.82100000       2.60600000
