14
Properties=species:S:1:pos:R:3 gdb_25531=T pbc="F F F"
N       -0.06120000       0.91620000       0.00760000
H       -0.14050000      -0.08490000       0.00490000
H        0.86560000       1.30830000       0.00290000
C       -1.17250000       1.66720000       0.01720000
N       -1.18450000       2.97880000       0.02160000
C       -2.38960000       3.69400000       0.03170000
C       -2.54510000       5.04250000       0.03710000
O       -3.86980000       5.28530000       0.04650000
C       -4.52530000       3.95680000       0.04640000
O       -5.72640000       3.91220000       0.05410000
N       -3.55740000       3.00860000       0.03700000
H       -2.15160000       1.20030000       0.02200000
H       -0.32260000       3.50850000       0.01770000
H       -1.85750000       5.87370000       0.03530000
