21
Properties=species:S:1:pos:R:3 gdb_61027=T pbc="F F F"
C        0.02340000       1.56140000      -0.01060000
C        0.02960000       0.02250000       0.00330000
C        0.73510000      -0.45280000       1.25850000
O        1.71770000      -1.14760000       1.29020000
C       -1.39320000      -0.57040000      -0.03780000
C       -2.22030000      -0.17880000      -1.29630000
C       -3.04640000      -1.41360000      -1.56670000
C       -2.62320000      -2.46390000      -0.86680000
C       -1.43720000      -2.12580000       0.00200000
H        1.04170000       1.96180000      -0.00860000
H       -0.48530000       1.93940000      -0.90130000
H       -0.49820000       1.96150000       0.86670000
H        0.60390000      -0.35740000      -0.84980000
H        0.25610000      -0.09620000       2.20380000
H       -1.93930000      -0.20070000       0.84020000
H       -2.82870000       0.71760000      -1.13310000
H       -1.56940000       0.04420000      -2.15530000
H       -3.85850000      -1.42320000      -2.28540000
H       -3.03700000      -3.46460000      -0.92500000
H       -0.51540000      -2.56600000      -0.40580000
H       -1.52820000      -2.51200000       1.02390000
