18
Properties=species:S:1:pos:R:3 gdb_86239=T pbc="F F F"
O       -0.03950000       1.44900000      -0.04320000
C        0.04920000       0.03780000       0.02540000
C        0.62940000      -0.51350000       1.33730000
C        0.09270000      -1.94940000       1.38980000
O        0.07220000      -2.54570000       2.66900000
C       -1.37430000      -1.79280000       0.90060000
C       -1.37850000      -0.54840000      -0.03920000
C       -1.89770000      -3.00660000       0.28320000
N       -2.30060000      -3.96360000      -0.22470000
H        0.85140000       1.80640000      -0.11060000
H        0.63910000      -0.34660000      -0.82110000
H        1.72200000      -0.46350000       1.38670000
H        0.21840000       0.05340000       2.18060000
H        0.64190000      -2.58020000       0.67550000
H        0.96550000      -2.82200000       2.89460000
H       -1.97070000      -1.59140000       1.79660000
H       -2.07630000       0.20620000       0.33040000
H       -1.67400000      -0.80070000      -1.05830000
