19
Properties=species:S:1:pos:R:3 gdb_88111=T pbc="F F F"
C       -0.18350000       1.45380000      -0.09300000
N        0.03960000       0.02050000       0.03320000
C        1.39280000      -0.47950000      -0.18220000
C        0.78210000      -0.52580000       1.17480000
C        1.31000000       0.36090000       2.27630000
O        0.29600000       0.59370000       3.26940000
C       -0.49390000      -0.47540000       3.55250000
N       -0.58050000      -1.59000000       2.96540000
C        0.21900000      -1.80870000       1.75990000
H        0.69710000       2.07930000       0.12450000
H       -0.49130000       1.66610000      -1.12160000
H       -0.99400000       1.75550000       0.57700000
H        1.48600000      -1.38770000      -0.77360000
H        2.18570000       0.25090000      -0.35020000
H        2.16850000      -0.12000000       2.76350000
H        1.62170000       1.34640000       1.92990000
H       -1.11250000      -0.25180000       4.42000000
H       -0.41400000      -2.29670000       1.01280000
H        1.02890000      -2.51080000       2.00280000
