23
Properties=species:S:1:pos:R:3 gdb_116374=T pbc="F F F"
O        0.04000000       1.43630000      -0.06240000
C        0.05830000       0.01610000      -0.00900000
C       -1.38440000      -0.49540000       0.01290000
C       -1.38770000      -2.02820000      -0.10820000
C       -2.75500000      -2.68560000      -0.34120000
C       -3.74850000      -2.57840000       0.83080000
C       -4.32160000      -1.19980000       1.06080000
C       -3.61740000      -0.08330000       1.24580000
C       -2.11190000       0.02570000       1.27220000
H        0.94400000       1.75290000       0.01880000
H        0.58050000      -0.40060000      -0.88510000
H        0.58960000      -0.33970000       0.89000000
H       -1.88400000      -0.07140000      -0.86870000
H       -0.72770000      -2.31390000      -0.93800000
H       -0.93540000      -2.45810000       0.79830000
H       -3.21660000      -2.26220000      -1.24220000
H       -2.58600000      -3.74940000      -0.54960000
H       -4.57110000      -3.27940000       0.65440000
H       -3.24900000      -2.93140000       1.74630000
H       -5.40710000      -1.12920000       1.08000000
H       -4.16420000       0.84370000       1.40460000
H       -1.71570000      -0.51750000       2.14520000
H       -1.82870000       1.07170000       1.41000000
