17
Properties=species:S:1:pos:R:3 gdb_80812=T pbc="F F F"
N        0.19640000       1.49200000       0.02340000
C        0.08250000       0.07590000      -0.01510000
C       -0.08350000      -0.66740000       1.33420000
N       -1.50050000      -0.10850000       1.39350000
C       -1.34000000      -0.66380000      -0.00940000
C       -2.38770000      -0.62430000      -0.99360000
N       -3.20250000      -0.59660000      -1.81510000
C       -0.62340000      -1.91830000       0.57820000
N        0.26280000      -2.67620000      -0.27470000
H        0.15810000       1.89660000      -0.90480000
H       -0.54330000       1.89210000       0.59150000
H        0.79150000      -0.37520000      -0.70490000
H        0.57330000      -0.63180000       2.20340000
H       -2.09950000      -0.73790000       1.93900000
H       -1.30820000      -2.51230000       1.20440000
H        0.87040000      -3.26610000       0.28600000
H       -0.27320000      -3.29590000      -0.87510000
