20
Properties=species:S:1:pos:R:3 gdb_65140=T pbc="F F F"
O        0.81410000       0.41630000       1.11430000
C        0.10850000       0.04910000      -0.04560000
C        0.43400000       0.80850000      -1.31310000
C        0.98220000      -0.58330000      -1.09620000
C       -1.29110000      -0.49580000       0.10080000
C       -2.03890000      -0.81040000       1.33320000
C       -1.81790000       0.17830000       2.47700000
C       -2.18360000       1.28880000       1.46020000
N       -2.51840000       0.29100000       0.38130000
H        0.57610000       1.32080000       1.34070000
H       -0.35790000       0.95180000      -2.04000000
H        1.12960000       1.63590000      -1.22390000
H        2.03160000      -0.67090000      -0.84210000
H        0.58150000      -1.39990000      -1.68640000
H       -1.52200000      -1.18340000      -0.71160000
H       -2.58200000      -1.74620000       1.43420000
H       -2.58060000       0.07710000       3.25150000
H       -0.83100000       0.18360000       2.93860000
H       -3.07990000       1.85290000       1.72500000
H       -1.40840000       2.00880000       1.17300000
