17
Properties=species:S:1:pos:R:3 gdb_75725=T pbc="F F F"
O        0.52000000       0.89790000      -0.82650000
C        0.08560000      -0.24530000      -0.14800000
C        0.15650000      -0.26770000       1.37790000
O        0.93750000       0.23460000       2.14050000
C       -1.24090000      -0.87490000       1.51600000
C       -2.26770000       0.26050000       1.82400000
C       -2.35870000       0.60480000       0.30760000
C       -1.43500000      -0.59950000      -0.02430000
O       -1.92300000      -1.61090000      -0.84880000
H        1.04630000       1.41450000      -0.20360000
H        0.56650000      -1.15850000      -0.54000000
H       -1.35980000      -1.84390000       1.99870000
H       -3.20210000      -0.13880000       2.22200000
H       -1.90680000       1.04350000       2.49400000
H       -3.36020000       0.49060000      -0.11060000
H       -1.95120000       1.57300000       0.00770000
H       -2.02550000      -1.25460000      -1.73890000
