17
Properties=species:S:1:pos:R:3 gdb_37661=T pbc="F F F"
C       -0.03530000       1.49450000       0.07670000
C        1.50380000       1.39540000      -0.02700000
C        1.87420000       0.60630000       1.23300000
C        0.65510000      -0.39200000       1.23350000
C        1.67260000      -1.48190000       0.89100000
C        2.18400000      -0.96840000      -0.40110000
C        1.22480000       0.10990000      -0.86190000
N       -0.05600000      -0.01760000      -0.02120000
N        2.83000000      -0.52420000       0.87290000
H       -0.48480000       1.90730000       0.98490000
H       -0.50890000       1.93450000      -0.80380000
H        2.15570000       2.20520000      -0.35560000
H        2.16830000       1.14500000       2.13090000
H        0.00180000      -0.48790000       2.09770000
H        1.75060000      -2.49670000       1.26190000
H        2.79650000      -1.55800000      -1.07090000
H        1.02320000       0.21050000      -1.92650000
