19
Properties=species:S:1:pos:R:3 gdb_68157=T pbc="F F F"
C       -0.05000000       1.55630000      -0.01760000
C        0.02840000       0.04010000       0.00010000
C        1.09230000      -0.69260000      -0.88600000
C        1.08780000      -1.80820000       0.20480000
C        0.69250000      -0.68880000       1.21730000
C       -0.10970000      -2.72890000      -0.02120000
O       -0.03490000      -3.93940000      -0.00480000
C       -1.37080000      -1.98130000      -0.26220000
C       -1.30300000      -0.64310000      -0.25170000
H        0.93260000       2.00070000       0.16850000
H       -0.40640000       1.92380000      -0.98670000
H       -0.73700000       1.92700000       0.75190000
H        0.80470000      -0.96110000      -1.90530000
H        2.04570000      -0.15580000      -0.89700000
H        1.98840000      -2.39730000       0.37700000
H        1.57580000      -0.15140000       1.57540000
H        0.05090000      -0.95400000       2.06090000
H       -2.28170000      -2.54350000      -0.43430000
H       -2.18030000      -0.02330000      -0.41960000
