17
Properties=species:S:1:pos:R:3 gdb_88256=T pbc="F F F"
C       -0.05470000       1.40230000      -0.37500000
C        0.05530000      -0.09900000      -0.29120000
O        1.09740000      -0.70840000      -0.35560000
C       -1.27690000      -0.86330000      -0.10740000
O       -2.32290000      -0.22710000      -0.03710000
C       -1.20730000      -2.31990000      -0.07780000
C       -2.28210000      -3.07880000       0.71590000
C       -2.41910000      -3.05220000      -0.75360000
O       -3.39830000      -2.33620000      -1.39950000
H        0.93800000       1.83740000      -0.48920000
H       -0.69500000       1.68320000      -1.21740000
H       -0.54550000       1.79370000       0.52160000
H       -0.22180000      -2.75390000      -0.17100000
H       -1.95540000      -3.98860000       1.20690000
H       -2.96320000      -2.45560000       1.28720000
H       -2.14470000      -3.93500000      -1.32120000
H       -3.49190000      -1.48490000      -0.93850000
