17
Properties=species:S:1:pos:R:3 gdb_69788=T pbc="F F F"
C       -0.01820000       1.54030000      -0.00680000
C        0.05990000       0.03280000       0.03540000
C       -0.82880000      -0.74880000       0.99350000
C        0.66160000      -0.77900000       1.17570000
C        1.37020000      -1.97850000       0.55870000
O        0.49520000      -2.87750000      -0.12580000
C        1.24630000      -1.92980000      -0.90770000
C        0.48930000      -0.65160000      -1.24600000
O        0.40280000      -0.17790000      -2.35210000
H        0.93400000       1.98160000      -0.31810000
H       -0.77910000       1.86220000      -0.72400000
H       -0.27880000       1.94410000       0.97590000
H       -1.40170000      -0.13740000       1.68280000
H       -1.31850000      -1.65240000       0.65720000
H        1.12180000      -0.29310000       2.02790000
H        2.21480000      -2.43800000       1.06290000
H        1.94470000      -2.34390000      -1.62870000
