17
Properties=species:S:1:pos:R:3 gdb_61710=T pbc="F F F"
C       -0.47040000       1.56550000       0.16470000
C       -0.08110000       0.07630000       0.02800000
C        0.92470000      -0.41270000       1.07160000
C        0.45940000      -0.32880000       2.50580000
O       -0.60340000       0.10370000       2.87600000
C       -1.35410000      -0.78730000       0.06740000
O       -1.39590000      -1.90010000       0.51710000
C        0.49840000      -0.10630000      -1.38170000
O        1.57090000      -0.59200000      -1.62240000
H        0.41770000       2.20180000       0.10620000
H       -1.15030000       1.86640000      -0.63960000
H       -0.96390000       1.73760000       1.12160000
H        1.18930000      -1.45850000       0.87680000
H        1.87070000       0.13740000       0.98570000
H        1.20240000      -0.71340000       3.23950000
H       -2.24960000      -0.31050000      -0.38860000
H       -0.15860000       0.27430000      -2.19520000
