14
Properties=species:S:1:pos:R:3 gdb_25186=T pbc="F F F"
N       -0.07410000       1.31630000      -0.35470000
C       -0.01660000       0.06330000      -0.09580000
C        1.21260000      -0.66420000       0.19540000
C        1.48310000      -1.98880000       0.19190000
N        0.70090000      -3.08080000      -0.11070000
C       -0.57240000      -3.04270000      -0.22650000
N       -1.46770000      -2.01040000      -0.08580000
C       -1.37790000      -0.60680000      -0.02390000
O       -2.40470000       0.01560000       0.06970000
H        0.86910000       1.71400000      -0.36880000
H        2.05500000      -0.01360000       0.42060000
H        2.50680000      -2.27280000       0.42590000
H       -1.08080000      -3.97960000      -0.45450000
H       -2.44400000      -2.28100000      -0.11290000
