15
Properties=species:S:1:pos:R:3 gdb_135=T pbc="F F F"
C       -0.03310000       1.52010000      -0.01320000
C        0.01930000      -0.00900000       0.02900000
C        0.75060000      -0.53310000       1.25710000
O        0.75400000      -1.94360000       1.21850000
C        1.41090000      -2.52030000       2.31920000
H        0.97270000       1.95410000      -0.03410000
H       -0.56360000       1.87080000      -0.90310000
H       -0.55040000       1.92670000       0.86290000
H       -0.99470000      -0.42510000       0.02480000
H        0.51960000      -0.39780000      -0.86530000
H        1.78580000      -0.14740000       1.28090000
H        0.25760000      -0.17560000       2.17900000
H        2.46950000      -2.21760000       2.37110000
H        0.93260000      -2.24580000       3.27360000
H        1.36120000      -3.60570000       2.20060000
