21
Properties=species:S:1:pos:R:3 gdb_59236=T pbc="F F F"
C       -0.01830000       1.61990000       0.11240000
C        0.02420000       0.08860000       0.01300000
C        0.81300000      -0.52600000       1.17790000
C       -1.38830000      -0.49240000      -0.05370000
C       -2.26820000      -0.15820000      -1.26500000
O       -1.66080000      -0.76850000      -2.41970000
C       -2.50340000      -1.57580000      -1.57760000
C       -1.59160000      -2.03100000      -0.42940000
O       -0.47510000      -2.79090000      -0.80410000
H        0.99390000       2.03680000       0.13660000
H       -0.54170000       2.06760000      -0.73880000
H       -0.52990000       1.94110000       1.02790000
H        0.53520000      -0.17240000      -0.92230000
H        0.33510000      -0.29620000       2.13830000
H        0.87440000      -1.61210000       1.07560000
H        1.83180000      -0.12590000       1.21280000
H       -1.92850000      -0.27820000       0.87700000
H       -2.90310000       0.70070000      -1.44830000
H       -3.33980000      -2.07570000      -2.05230000
H       -2.10890000      -2.58220000       0.35880000
H       -0.13940000      -2.38900000      -1.61570000
