14
Properties=species:S:1:pos:R:3 gdb_62312=T pbc="F F F"
O       -0.00280000       1.42800000      -0.08450000
C        0.05410000       0.02430000      -0.03670000
C        1.01210000      -0.51360000      -1.01050000
N        1.78950000      -0.92710000      -1.75970000
C        0.04630000      -0.65290000       1.35870000
C       -1.47590000      -0.34160000       1.53750000
O       -1.83140000      -1.70950000       1.87800000
C       -0.81940000      -1.84260000       0.83900000
C       -1.33950000      -0.62930000       0.00680000
H        0.88880000       1.78260000       0.00800000
H        0.82280000      -0.67480000       2.12140000
H       -1.96650000       0.48040000       2.05180000
H       -0.51850000      -2.83490000       0.51130000
H       -2.11840000      -0.61800000      -0.75260000
