16
Properties=species:S:1:pos:R:3 gdb_61067=T pbc="F F F"
O       -0.10870000       1.36700000       0.08680000
C        0.04870000      -0.02360000       0.04830000
C        0.75070000      -0.44280000      -1.22980000
O        1.08830000       0.38090000      -2.04780000
C        0.83630000      -0.50750000       1.28640000
C        0.15070000      -0.11530000       2.62170000
O       -0.17710000      -1.39430000       3.22870000
C        0.31270000      -2.32760000       2.38850000
N        0.89540000      -1.98070000       1.31610000
H        0.28450000       1.69390000      -0.73940000
H       -0.93300000      -0.53080000       0.06060000
H        0.93860000      -1.52270000      -1.36010000
H        1.84880000      -0.09510000       1.22240000
H        0.80980000       0.42430000       3.30520000
H       -0.77140000       0.45300000       2.48630000
H        0.15960000      -3.35030000       2.71560000
