14
Properties=species:S:1:pos:R:3 gdb_132061=T pbc="F F F"
N        0.00140000       1.39940000       0.16620000
C        0.02670000       0.02360000       0.06300000
C       -1.13950000      -0.69980000       0.03770000
F       -2.30730000      -0.03520000       0.05210000
C       -1.20810000      -2.13590000      -0.01150000
O       -2.21170000      -2.82900000      -0.04000000
N        0.07700000      -2.72190000      -0.03380000
C        1.25380000      -2.04000000      -0.01550000
C        1.27190000      -0.68460000       0.03280000
H        0.79400000       1.89160000      -0.21510000
H       -0.88660000       1.82730000      -0.04870000
H        0.06410000      -3.73110000      -0.07060000
H        2.15550000      -2.63890000      -0.03920000
H        2.20960000      -0.14590000       0.06070000
