18
Properties=species:S:1:pos:R:3 gdb_68555=T pbc="F F F"
O       -0.14980000       1.39980000       0.06410000
C       -0.01670000       0.01750000       0.01010000
C        0.35170000      -0.79140000      -1.28920000
C       -0.33250000      -1.94650000      -0.47760000
C        0.59420000      -2.02760000       0.74030000
C        0.80190000      -0.74690000       1.06450000
C       -1.30860000      -0.83420000       0.01640000
C       -2.50180000      -0.77350000       0.86460000
N       -2.56270000      -0.47410000      -0.59780000
H        0.72080000       1.80210000      -0.02150000
H       -0.23010000      -0.47750000      -2.16030000
H        1.41220000      -0.91140000      -1.52370000
H       -0.68610000      -2.85740000      -0.95380000
H        0.93840000      -2.92970000       1.22610000
H        1.34690000      -0.30410000       1.88670000
H       -3.02360000      -1.67930000       1.16060000
H       -2.58880000       0.05480000       1.56340000
H       -2.59900000       0.53350000      -0.74410000
