20
Properties=species:S:1:pos:R:3 gdb_23169=T pbc="F F F"
C        0.39950000       1.37390000      -0.05530000
O       -0.11840000       0.08890000       0.22940000
C        0.58240000      -0.57940000       1.25220000
C        0.05000000      -2.04190000       1.44410000
C       -1.29790000      -2.39110000       0.83310000
C        1.33920000      -2.59740000       0.74950000
C        1.90610000      -1.19670000       0.81090000
N        3.03900000      -0.65030000       0.65940000
O        4.00690000      -1.59040000       0.26180000
H        1.44710000       1.32670000      -0.37970000
H       -0.21140000       1.79340000      -0.85810000
H        0.33810000       2.03290000       0.82490000
H        0.62940000       0.04530000       2.15700000
H        0.05990000      -2.28890000       2.51000000
H       -1.33360000      -2.11110000      -0.22240000
H       -1.48450000      -3.46730000       0.91390000
H       -2.11290000      -1.86780000       1.34290000
H        1.91000000      -3.36640000       1.27570000
H        1.16450000      -2.93970000      -0.27660000
H        4.80430000      -1.05230000       0.20920000
