19
Properties=species:S:1:pos:R:3 gdb_86010=T pbc="F F F"
C        0.25880000       1.57330000       0.07810000
C        0.06620000       0.05130000       0.02500000
C        0.80110000      -0.62680000      -1.16200000
C        1.48760000      -1.89910000      -0.60710000
O        0.87870000      -3.13330000      -0.99450000
C        2.94120000      -2.04710000      -1.06260000
O        3.64610000      -1.14170000      -1.42110000
C        1.42130000      -1.69660000       0.89630000
C        0.63560000      -0.67160000       1.22320000
H        1.32190000       1.82730000       0.14280000
H       -0.14850000       2.04770000      -0.82030000
H       -0.24820000       2.00870000       0.94570000
H       -1.01520000      -0.14440000      -0.02450000
H        0.14060000      -0.88820000      -1.99170000
H        1.58000000       0.03860000      -1.54590000
H        0.07070000      -3.23210000      -0.48010000
H        3.30310000      -3.09710000      -1.01270000
H        1.92200000      -2.36810000       1.58500000
H        0.40340000      -0.37060000       2.24060000
