11
Properties=species:S:1:pos:R:3 gdb_132484=T pbc="F F F"
O       -0.10170000       1.28450000       0.01030000
C        0.06550000      -0.03080000       0.00200000
N        1.23450000      -0.57370000      -0.00740000
C        1.24540000      -1.94800000      -0.01500000
C        0.11730000      -2.69150000      -0.01280000
F        0.14030000      -4.01930000      -0.02020000
C       -1.19190000      -2.07590000      -0.00220000
O       -2.27220000      -2.57880000       0.00110000
O       -1.10920000      -0.65180000       0.00510000
H        0.78350000       1.67600000       0.00760000
H        2.21790000      -2.42890000      -0.02300000
