19
Properties=species:S:1:pos:R:3 gdb_40063=T pbc="F F F"
C        0.09570000       1.51760000       0.01090000
O        1.22410000       0.63360000      -0.00670000
C       -0.08180000       0.06540000       0.02220000
C       -0.48280000      -0.79950000       1.22560000
C       -1.13270000      -1.99720000       0.49300000
C       -2.51140000      -1.58690000      -0.07370000
C       -2.08390000      -0.69070000      -1.27600000
C       -0.54190000      -0.77080000      -1.17070000
O       -0.32720000      -2.10710000      -0.69270000
H       -0.03910000       2.08790000       0.92950000
H       -0.06830000       2.08270000      -0.90700000
H        0.41650000      -1.10880000       1.76410000
H       -1.15610000      -0.29500000       1.92320000
H       -1.11010000      -2.94050000       1.03780000
H       -3.06410000      -2.46640000      -0.41080000
H       -3.12760000      -1.06060000       0.65980000
H       -2.42070000      -1.11080000      -2.22590000
H       -2.45780000       0.33380000      -1.20660000
H        0.02130000      -0.59690000      -2.08670000
