18
Properties=species:S:1:pos:R:3 gdb_9367=T pbc="F F F"
O        0.01550000       1.39700000      -0.13470000
C        0.03590000      -0.01100000       0.03460000
C       -1.39990000      -0.51050000      -0.04720000
C       -1.50120000      -2.02710000       0.10750000
C       -2.93910000      -2.53570000       0.14030000
O       -3.88520000      -1.81590000       0.33420000
C       -3.09060000      -4.03820000      -0.08730000
O       -4.41930000      -4.42500000       0.13880000
H        0.91920000       1.72090000      -0.08140000
H        0.64840000      -0.49720000      -0.74380000
H        0.47230000      -0.29050000       1.00860000
H       -1.99910000      -0.02260000       0.72650000
H       -1.82880000      -0.20220000      -1.00670000
H       -0.95140000      -2.55120000      -0.68640000
H       -1.02820000      -2.35070000       1.04740000
H       -2.75800000      -4.23980000      -1.12170000
H       -2.37370000      -4.55750000       0.57290000
H       -4.49250000      -5.36550000      -0.04710000
