10
Properties=species:S:1:pos:R:3 gdb_494=T pbc="F F F"
N        0.07200000       1.15260000      -0.24450000
C       -0.17700000      -0.03820000       0.06980000
O       -0.59050000      -0.90460000      -0.89540000
C       -0.85590000      -2.22940000      -0.47370000
C       -2.10740000      -2.34710000       0.29240000
N       -3.08220000      -2.43900000       0.90480000
H        0.37650000       1.67900000       0.57160000
H       -0.09820000      -0.49460000       1.06510000
H       -0.93450000      -2.82800000      -1.38420000
H       -0.03270000      -2.63650000       0.12790000
