22
Properties=species:S:1:pos:R:3 gdb_118435=T pbc="F F F"
C        0.00790000       1.64330000      -0.01950000
C       -0.12440000       0.11630000      -0.01660000
N        0.54910000      -0.53640000      -1.13810000
C        2.00860000      -0.70740000      -1.04030000
C        2.47710000      -2.14650000      -0.77590000
O        2.55840000      -2.93950000      -1.93180000
C       -0.08320000      -0.93900000      -2.27520000
C       -1.56500000      -0.63520000      -2.42680000
O        0.51420000      -1.53950000      -3.16720000
H        1.05740000       1.95180000       0.00120000
H       -0.45100000       2.07660000      -0.91320000
H       -0.48550000       2.06820000       0.86040000
H        0.29760000      -0.29210000       0.90890000
H       -1.17780000      -0.16810000      -0.01820000
H        2.47310000      -0.35610000      -1.96740000
H        2.34720000      -0.06040000      -0.22630000
H        3.48360000      -2.10220000      -0.33770000
H        1.81560000      -2.59300000      -0.01060000
H        1.86200000      -2.63040000      -2.53620000
H       -1.80810000       0.41060000      -2.22160000
H       -1.84110000      -0.87880000      -3.45210000
H       -2.16170000      -1.25750000      -1.75130000
