18
Properties=species:S:1:pos:R:3 gdb_117478=T pbc="F F F"
O       -0.33520000       1.47280000       0.10810000
C       -0.01290000       0.08950000       0.06580000
C       -1.33500000      -0.66270000       0.00740000
C       -1.17840000      -2.15710000      -0.04320000
N       -0.04670000      -2.72550000      -0.03750000
O       -2.41240000      -2.74390000      -0.09320000
C       -2.48430000      -4.15540000      -0.14530000
C       -3.95550000      -4.53950000      -0.19080000
O       -4.33090000      -5.67880000      -0.24040000
H        0.48790000       1.96770000       0.14830000
H        0.59610000      -0.16200000      -0.81320000
H        0.55450000      -0.22580000       0.95210000
H       -1.94920000      -0.40070000       0.87700000
H       -1.90810000      -0.33730000      -0.86870000
H       -0.09810000      -3.74150000      -0.07580000
H       -1.98290000      -4.55560000      -1.03790000
H       -2.02120000      -4.61910000       0.73720000
H       -4.65040000      -3.67290000      -0.17390000
