18
Properties=species:S:1:pos:R:3 gdb_86476=T pbc="F F F"
C       -0.02160000       1.52560000       0.02790000
N       -0.03180000       0.08370000       0.11390000
C       -1.26580000      -0.58680000       0.54350000
C       -0.39450000      -1.64180000       1.32430000
C        0.74440000      -0.56310000       1.17960000
C       -0.82030000      -1.94940000       2.68120000
C       -1.17390000      -2.17790000       3.80660000
C       -0.13570000      -2.85040000       0.55130000
C        0.07920000      -3.84260000      -0.09090000
H        0.98390000       1.87380000      -0.23050000
H       -0.70260000       1.85400000      -0.76420000
H       -0.32560000       2.02050000       0.97030000
H       -1.87470000       0.00310000       1.24610000
H       -1.89580000      -0.97540000      -0.26110000
H        1.73080000      -0.93270000       0.88650000
H        0.82560000       0.03480000       2.10060000
H       -1.48580000      -2.39230000       4.79880000
H        0.26820000      -4.72220000      -0.65500000
