23
Properties=species:S:1:pos:R:3 gdb_116052=T pbc="F F F"
C        0.08800000       1.62600000      -0.09180000
C        0.19240000       0.10500000       0.03470000
C        0.66370000      -0.58150000      -1.25090000
C        0.78830000      -2.09970000      -1.07990000
C        1.59970000      -2.81800000      -2.16440000
C        1.19540000      -2.62050000      -3.60320000
C        0.61620000      -1.57130000      -4.18720000
C        0.16570000      -0.26230000      -3.58780000
O       -0.29620000      -0.27700000      -2.25730000
H        1.06370000       2.07250000      -0.31620000
H       -0.59870000       1.89660000      -0.89730000
H       -0.27660000       2.07490000       0.83710000
H        0.88680000      -0.16000000       0.84090000
H       -0.78360000      -0.31540000       0.30860000
H        1.64160000      -0.15650000      -1.54190000
H        1.25230000      -2.31570000      -0.10970000
H       -0.23000000      -2.50420000      -1.04650000
H        2.65710000      -2.52160000      -2.07030000
H        1.59110000      -3.89310000      -1.94700000
H        1.47370000      -3.44640000      -4.25640000
H        0.47460000      -1.61550000      -5.26660000
H        0.98410000       0.47540000      -3.69690000
H       -0.67440000       0.12360000      -4.17640000
