21
Properties=species:S:1:pos:R:3 gdb_96530=T pbc="F F F"
O        0.16390000       1.42900000       0.14730000
C        0.08150000       0.03160000       0.07260000
C       -1.39150000      -0.42170000       0.20310000
C       -1.59800000      -1.85720000       0.69670000
C       -1.11560000      -2.96720000      -0.24570000
C        0.39370000      -2.95820000      -0.53930000
C        0.85100000      -1.91630000      -1.56810000
C        0.71730000      -0.43820000      -1.23660000
O        1.12040000       0.40190000      -2.01640000
H        0.58410000       1.70020000      -0.68660000
H        0.65440000      -0.42230000       0.90110000
H       -1.84170000       0.27380000       0.91790000
H       -1.90960000      -0.25980000      -0.75120000
H       -1.09540000      -1.97330000       1.66740000
H       -2.66690000      -2.00270000       0.89180000
H       -1.37820000      -3.93300000       0.20140000
H       -1.66700000      -2.91300000      -1.19500000
H        0.95220000      -2.83810000       0.39810000
H        0.68100000      -3.94010000      -0.93170000
H        1.90910000      -2.06540000      -1.81550000
H        0.31450000      -2.06560000      -2.51460000
