19
Properties=species:S:1:pos:R:3 gdb_18729=T pbc="F F F"
O        0.04060000       1.39300000      -0.10980000
C        0.03800000      -0.02740000      -0.03400000
C        0.85400000      -0.53930000       1.16180000
C        0.69750000      -2.05540000       1.33100000
C       -0.74880000      -2.43550000       1.69190000
C       -1.77830000      -1.69490000       0.84730000
N       -2.09780000      -0.30880000       1.25260000
C       -1.38630000      -0.54910000      -0.01830000
H       -0.49370000       1.69520000       0.63510000
H        0.51800000      -0.36440000      -0.96170000
H        1.90200000      -0.26150000       1.01380000
H        0.50730000      -0.02820000       2.06810000
H        0.98080000      -2.55230000       0.39300000
H        1.38340000      -2.43010000       2.09810000
H       -0.89040000      -3.51470000       1.56820000
H       -0.94100000      -2.21010000       2.74730000
H       -2.61720000      -2.29390000       0.49930000
H       -3.07800000      -0.10940000       1.07390000
H       -1.93950000      -0.38770000      -0.94110000
