18
Properties=species:S:1:pos:R:3 gdb_17977=T pbc="F F F"
C       -0.03530000       1.40260000       0.04860000
C        1.39920000       1.95160000       0.01080000
O        2.24940000       1.35490000      -0.95550000
C        1.91710000       1.55460000      -2.29570000
O        0.71760000       0.93550000      -2.68990000
C        0.60200000      -0.43620000      -2.31590000
C       -0.42800000      -0.59950000      -1.19970000
O       -0.06530000      -0.01430000       0.03450000
H       -0.49100000       1.73730000       0.99110000
H       -0.62980000       1.81000000      -0.77590000
H        1.35750000       3.04530000      -0.12680000
H        1.88970000       1.74850000       0.96710000
H        1.77770000       2.61980000      -2.53210000
H        2.77220000       1.15230000      -2.85730000
H        0.26100000      -0.99690000      -3.19620000
H        1.56930000      -0.83710000      -1.99490000
H       -1.38990000      -0.19110000      -1.54880000
H       -0.56840000      -1.66770000      -0.99800000
