17
Properties=species:S:1:pos:R:3 gdb_17100=T pbc="F F F"
O       -0.56960000       0.74720000      -0.61510000
C        0.15560000       1.04030000       0.30110000
C        1.34830000       1.97000000       0.20270000
C        1.40410000       2.89150000      -1.05630000
C        1.43090000       4.23310000      -0.29850000
C        2.41160000       3.90190000       0.85480000
N        1.34010000       2.94150000       1.34450000
C        0.36460000       3.97460000       0.79250000
H       -0.00120000       0.62990000       1.32290000
H        2.23920000       1.33610000       0.30510000
H        2.29820000       2.72750000      -1.66280000
H        0.52390000       2.76320000      -1.69010000
H        1.47750000       5.15140000      -0.88590000
H        3.37550000       3.43930000       0.62130000
H        2.54350000       4.70870000       1.57920000
H        0.24910000       4.78800000       1.51130000
H       -0.61550000       3.58640000       0.49980000
