18
Properties=species:S:1:pos:R:3 gdb_107359=T pbc="F F F"
C       -0.29700000       1.54980000      -0.11210000
C       -0.06960000       0.04040000       0.03470000
C        0.76850000      -0.53410000      -1.07270000
C        0.24280000      -0.93580000      -2.43590000
C        0.87440000      -1.95610000      -1.51470000
O        2.24940000      -2.20540000      -1.71290000
C        2.94940000      -1.05090000      -1.46580000
N        4.18780000      -0.87850000      -1.57940000
O        2.10700000      -0.05850000      -1.07840000
H        0.65620000       2.08520000      -0.11720000
H       -0.81860000       1.78080000      -1.04640000
H       -0.89930000       1.93280000       0.71650000
H        0.42110000      -0.17570000       0.99100000
H       -1.02960000      -0.48860000       0.04320000
H       -0.83500000      -0.98410000      -2.54960000
H        0.79420000      -0.63280000      -3.31930000
H        0.33960000      -2.79890000      -1.09590000
H        4.63660000      -1.74050000      -1.87830000
