17
Properties=species:S:1:pos:R:3 gdb_109487=T pbc="F F F"
C       -0.00870000       1.57360000       0.05550000
C       -0.01730000       0.04730000      -0.03970000
N        0.67150000      -0.44480000      -1.22530000
C        0.05580000      -0.74950000      -2.41980000
O       -1.12150000      -0.65850000      -2.67070000
C        1.16940000      -1.23490000      -3.35650000
N        2.35530000      -1.05290000      -2.54830000
C        2.06390000      -0.66720000      -1.26390000
O        2.82150000      -0.52950000      -0.33340000
H        1.01650000       1.95000000       0.10600000
H       -0.50800000       2.01990000      -0.80910000
H       -0.53630000       1.89410000       0.95880000
H        0.48170000      -0.39410000       0.82640000
H       -1.04020000      -0.33330000      -0.09380000
H        0.98410000      -2.28040000      -3.63180000
H        1.17440000      -0.63500000      -4.27290000
H        3.25460000      -1.45220000      -2.75460000
