17
Properties=species:S:1:pos:R:3 gdb_47060=T pbc="F F F"
O        0.01840000       0.45620000      -1.14270000
C       -0.02880000       1.23850000      -0.22590000
C       -1.35120000       1.88780000       0.20210000
O       -1.20850000       2.72010000       1.33830000
C       -0.26350000       3.74170000       1.10590000
C        0.38950000       4.24390000       2.39910000
O        1.66370000       3.66420000       2.03370000
C        1.14740000       3.19960000       0.76730000
C        1.17260000       1.67670000       0.59720000
H       -1.76470000       2.43630000      -0.66050000
H       -2.06380000       1.10040000       0.46380000
H       -0.66870000       4.50310000       0.42630000
H        0.45080000       5.33270000       2.50630000
H       -0.02830000       3.80200000       3.30970000
H        1.64940000       3.69960000      -0.06960000
H        1.07240000       1.23310000       1.59530000
H        2.09120000       1.30540000       0.14060000
