17
Properties=species:S:1:pos:R:3 gdb_10912=T pbc="F F F"
C       -0.10050000       1.49740000       0.06660000
C        0.15650000       0.02710000      -0.04250000
N       -0.75640000      -0.98300000       0.56480000
C        0.68910000      -0.96290000       0.93740000
C        1.34810000      -1.80070000      -0.15900000
O        0.93660000      -3.13140000      -0.27190000
C        0.78150000      -0.74230000      -1.21690000
O       -0.08320000      -1.19460000      -2.21590000
H        0.79810000       2.06830000      -0.18940000
H       -0.89800000       1.80820000      -0.61750000
H       -0.39810000       1.77700000       1.08340000
H       -1.27990000      -0.52610000       1.30940000
H        0.98610000      -0.82680000       1.97080000
H        2.43980000      -1.79550000      -0.12390000
H       -0.01490000      -3.13080000      -0.10620000
H        1.58920000      -0.19250000      -1.70710000
H       -0.85330000      -1.55550000      -1.75860000
