21
Properties=species:S:1:pos:R:3 gdb_119685=T pbc="F F F"
C        0.01750000       1.48420000      -0.13740000
C       -0.15470000      -0.02380000      -0.17370000
O        0.86240000      -0.56750000      -1.01090000
C        0.82220000      -1.93500000      -1.12150000
C        1.29510000      -2.97130000      -0.10210000
C        1.25420000      -3.96850000      -1.29680000
C       -0.25710000      -4.10220000      -1.64110000
C       -0.17220000      -2.64190000      -2.07400000
C        1.33090000      -2.73070000      -2.28420000
H        1.00200000       1.74880000       0.25880000
H       -0.07080000       1.90560000      -1.14280000
H       -0.74720000       1.93940000       0.49920000
H       -0.07420000      -0.44740000       0.83890000
H       -1.14510000      -0.29960000      -0.56580000
H        2.32070000      -2.76160000       0.21470000
H        0.67240000      -3.20350000       0.77000000
H        1.91360000      -4.83310000      -1.31030000
H       -0.42150000      -4.76570000      -2.49550000
H       -0.93690000      -4.37920000      -0.82610000
H       -0.87590000      -2.05410000      -2.65000000
H        1.96450000      -2.47300000      -3.11970000
