16
Properties=species:S:1:pos:R:3 gdb_6752=T pbc="F F F"
C       -0.01050000       1.40240000      -0.03150000
O        0.04150000      -0.00380000       0.06570000
C        0.54140000      -0.59810000      -1.11070000
C        0.58020000      -2.04590000      -0.97330000
C        0.62140000      -3.24850000      -0.88110000
C        0.67040000      -4.69480000      -0.76900000
C        1.19790000      -5.42130000      -1.99000000
O        0.31130000      -5.26710000       0.23730000
H        0.98750000       1.83770000      -0.19820000
H       -0.67100000       1.73150000      -0.84920000
H       -0.40610000       1.77410000       0.91560000
H       -0.08490000      -0.33380000      -1.98180000
H        1.55770000      -0.22850000      -1.33710000
H        2.21430000      -5.08340000      -2.21940000
H        1.19430000      -6.49620000      -1.80370000
H        0.57850000      -5.18940000      -2.86320000
