22
Properties=species:S:1:pos:R:3 gdb_60429=T pbc="F F F"
C       -0.23050000       1.43090000       0.49470000
C        0.03430000      -0.00730000       0.04630000
C        0.96840000      -0.72590000       1.02420000
N       -1.25870000      -0.71320000      -0.05820000
H       -2.10200000      -1.53900000       1.27890000
H       -1.93850000      -0.08120000      -0.47370000
C       -1.25100000      -1.95920000      -0.84070000
C       -2.60550000      -2.67090000      -0.72750000
C       -2.98830000      -3.11980000       0.68970000
O       -2.61340000      -2.29230000       1.67570000
O       -3.60310000      -4.13150000       0.90270000
H        0.70720000       1.98670000       0.57820000
H       -0.86940000       1.96140000      -0.22050000
H       -0.72590000       1.44440000       1.47110000
H        0.52210000       0.02180000      -0.94370000
H        1.18760000      -1.75040000       0.71190000
H        1.92210000      -0.19410000       1.09120000
H        0.52220000      -0.76330000       2.02320000
H       -1.00870000      -1.78010000      -1.90000000
H       -0.46580000      -2.60810000      -0.44120000
H       -3.40140000      -2.00510000      -1.09000000
H       -2.62700000      -3.55770000      -1.36350000
