17
Properties=species:S:1:pos:R:3 gdb_53124=T pbc="F F F"
C       -0.04650000       1.50900000      -0.01170000
C       -0.02700000       0.05390000       0.01510000
C       -0.02090000      -1.15030000       0.04380000
C       -0.00740000      -2.60030000       0.07050000
C        0.20890000      -3.37220000       1.38310000
C       -1.19840000      -3.53170000       1.98020000
O       -2.12130000      -2.84500000       1.13650000
C       -1.36820000      -3.37940000       0.02020000
C       -0.73160000      -4.48830000       0.93850000
H        0.96820000       1.92190000      -0.03540000
H       -0.57530000       1.88300000      -0.89560000
H       -0.55050000       1.91640000       0.87180000
H        0.65980000      -3.00780000      -0.69640000
H        1.11360000      -3.44330000       1.97260000
H       -1.42020000      -3.63630000       3.03350000
H       -1.94820000      -3.48330000      -0.89370000
H       -0.63040000      -5.56230000       0.87990000
