16
Properties=species:S:1:pos:R:3 gdb_25896=T pbc="F F F"
C        0.05160000       1.43180000       0.00570000
C       -0.00350000      -0.08290000      -0.03040000
O        1.03640000      -0.74360000      -0.07860000
C       -1.28920000      -0.74890000      -0.00770000
C       -2.58070000      -0.23110000       0.04470000
N       -3.43980000      -1.27370000       0.04500000
C       -2.75870000      -2.48450000      -0.00600000
C       -1.41960000      -2.18340000      -0.03940000
O       -0.39140000      -3.04570000      -0.09230000
H        1.09250000       1.75610000      -0.01820000
H       -0.48340000       1.85620000      -0.85060000
H       -0.42910000       1.81210000       0.91330000
H       -2.93140000       0.78760000       0.08080000
H       -4.44090000      -1.19060000       0.07780000
H       -3.27830000      -3.42660000      -0.01370000
H        0.41020000      -2.48170000      -0.10270000
