19
Properties=species:S:1:pos:R:3 gdb_65580=T pbc="F F F"
C        0.05180000       1.50040000       0.01350000
C        0.01490000      -0.03640000       0.00350000
C        0.78800000      -0.66640000      -1.20710000
C        1.32520000      -1.99420000      -0.69040000
N        2.55640000      -1.83640000       0.11150000
C        1.25640000      -2.00220000       0.79450000
C        0.67320000      -0.67980000       1.27350000
C       -1.38470000      -0.48710000      -0.06370000
N       -2.48360000      -0.84350000      -0.11650000
H        1.09120000       1.83770000       0.06350000
H       -0.40410000       1.91210000      -0.89120000
H       -0.48600000       1.90260000       0.87660000
H        0.13580000      -0.78720000      -2.07470000
H        1.61620000      -0.00990000      -1.49010000
H        1.19080000      -2.89720000      -1.27580000
H        3.06280000      -2.71910000       0.13020000
H        1.06890000      -2.91130000       1.35520000
H        1.47130000      -0.02680000       1.63890000
H       -0.05640000      -0.80950000       2.07580000
