16
Properties=species:S:1:pos:R:3 gdb_76258=T pbc="F F F"
C       -0.01170000       1.58870000       0.03120000
C        0.00150000       0.07000000      -0.00550000
C        0.67230000      -0.58880000      -1.25490000
O        1.09100000       0.31080000      -2.24420000
C        1.76500000      -1.09450000      -0.28720000
O        2.80970000      -1.66050000      -0.40730000
N        1.06560000      -0.57190000       0.81680000
C        1.24720000      -0.62340000       2.18890000
O        2.15770000      -1.17800000       2.74480000
H        0.97180000       1.99260000      -0.21660000
H       -0.72990000       1.97070000      -0.69980000
H       -0.30720000       1.95130000       1.02030000
H       -0.98640000      -0.34340000       0.21770000
H        0.07520000      -1.41300000      -1.66930000
H        1.88960000      -0.04790000      -2.64810000
H        0.43470000      -0.08850000       2.72060000
