19
Properties=species:S:1:pos:R:3 gdb_40225=T pbc="F F F"
C       -0.08680000       1.62340000       0.12730000
C        1.22590000       0.85750000       0.02200000
C       -0.07880000       0.13380000      -0.03530000
O       -0.47480000      -0.63950000       1.08430000
C       -1.23700000      -1.72560000       0.58780000
O       -1.69240000      -1.36230000      -0.69350000
C       -0.62450000      -0.61140000      -1.22730000
C       -0.75020000      -0.11060000      -2.61900000
C        0.22310000      -1.23770000      -2.30510000
H       -0.36420000       2.00350000       1.10410000
H       -0.39700000       2.23910000      -0.71010000
H        1.81240000       0.95610000      -0.88650000
H        1.81140000       0.73920000       0.92660000
H       -0.60750000      -2.63110000       0.53770000
H       -2.10180000      -1.89820000       1.23530000
H       -1.66090000      -0.36390000      -3.14960000
H       -0.34910000       0.87060000      -2.85160000
H        1.28600000      -1.02380000      -2.32540000
H       -0.05420000      -2.23540000      -2.62590000
