14
Properties=species:S:1:pos:R:3 gdb_2991=T pbc="F F F"
O       -0.79920000       0.81690000       0.10680000
C       -0.12810000      -0.38520000      -0.15270000
C        1.05310000      -0.13300000      -1.06910000
O        1.32670000       0.97980000      -1.45080000
C        0.37550000      -1.04120000       1.13780000
C        0.97590000      -0.19670000       2.19870000
N       -0.35580000      -0.80320000       2.38080000
H       -0.29860000       1.50200000      -0.36640000
H       -0.80520000      -1.09500000      -0.65910000
H        1.66130000      -1.01490000      -1.35190000
H        0.72430000      -2.06360000       1.00600000
H        1.75860000      -0.59680000       2.83610000
H        1.02520000       0.87270000       2.01510000
H       -1.05750000      -0.08650000       2.20110000
