17
Properties=species:S:1:pos:R:3 gdb_84738=T pbc="F F F"
C       -0.59790000       1.43830000      -0.11710000
C        0.22220000       0.14660000      -0.00200000
C        0.94590000      -0.22330000      -1.27050000
C        2.12560000      -0.84190000      -1.24750000
N        2.78460000      -1.16260000      -0.06060000
C        2.38920000      -0.73210000       1.19540000
N        2.95580000      -1.00380000       2.30510000
C        1.15930000       0.18770000       1.20960000
O        0.94670000       0.88970000       2.16380000
H        0.04960000       2.28620000      -0.35940000
H       -1.34700000       1.34150000      -0.90830000
H       -1.10190000       1.65670000       0.82530000
H       -0.48030000      -0.67450000       0.23830000
H        0.47500000       0.00090000      -2.21990000
H        2.65060000      -1.14430000      -2.14580000
H        3.62840000      -1.71160000      -0.11270000
H        3.76940000      -1.61080000       2.17300000
