20
Properties=species:S:1:pos:R:3 gdb_15091=T pbc="F F F"
O       -0.17640000       1.40070000       0.11330000
C       -0.10990000      -0.02010000       0.11480000
C       -1.51640000      -0.57260000      -0.12940000
C       -2.02790000      -0.15180000      -1.51810000
O       -3.39990000      -0.45140000      -1.73250000
C       -1.54010000      -2.07690000       0.05870000
C       -1.66720000      -2.68430000       1.43650000
C       -2.80560000      -2.78840000       0.45280000
H        0.71590000       1.74500000       0.21070000
H        0.57230000      -0.38610000      -0.67120000
H        0.26530000      -0.40000000       1.07660000
H       -2.17250000      -0.11170000       0.62450000
H       -1.82150000       0.91530000      -1.66940000
H       -1.48100000      -0.70660000      -2.29060000
H       -3.91580000       0.13900000      -1.17470000
H       -0.89560000      -2.61450000      -0.63470000
H       -1.09500000      -3.57700000       1.66380000
H       -1.78400000      -2.00870000       2.27830000
H       -3.68690000      -2.18180000       0.62520000
H       -3.01550000      -3.75210000       0.00280000
