16
Properties=species:S:1:pos:R:3 gdb_7894=T pbc="F F F"
C        0.09890000       1.55550000       0.05550000
C       -0.01790000       0.02950000      -0.01990000
C        0.70250000      -0.57510000      -1.24820000
C        1.94550000      -1.25450000      -0.68740000
O        2.87580000      -1.71420000      -1.29540000
C        1.82000000      -1.26180000       0.82690000
N        2.64200000      -1.74890000       1.66980000
N        0.63540000      -0.63850000       1.10740000
H        1.14790000       1.86850000       0.02440000
H       -0.42860000       2.02360000      -0.78210000
H       -0.34100000       1.93500000       0.98360000
H       -1.08050000      -0.24020000      -0.03040000
H        0.09090000      -1.33710000      -1.74310000
H        0.96910000       0.16820000      -2.00290000
H        3.41550000      -2.16830000       1.14960000
H        0.39740000      -0.41110000       2.06000000
