18
Properties=species:S:1:pos:R:3 gdb_16662=T pbc="F F F"
C        0.00800000       1.57570000       0.00200000
C        0.07950000       0.04920000       0.01280000
C        0.81880000      -0.57670000      -1.15770000
O        2.25560000      -0.57520000      -0.99770000
C        1.51960000      -1.78270000      -0.70320000
C        1.26060000      -1.97090000       0.77800000
C        0.81170000      -0.56250000       1.24980000
O        1.91410000       0.21880000       1.67400000
H        1.00760000       2.01530000       0.01500000
H       -0.51680000       1.93460000      -0.88940000
H       -0.52700000       1.94730000       0.88110000
H       -0.94250000      -0.35750000      -0.00940000
H        0.47660000      -0.43920000      -2.18070000
H        1.74040000      -2.62180000      -1.35730000
H        0.46570000      -2.71500000       0.91290000
H        2.13720000      -2.30580000       1.33940000
H        0.14260000      -0.61800000       2.11230000
H        2.51870000       0.24250000       0.91960000
