16
Properties=species:S:1:pos:R:3 gdb_28142=T pbc="F F F"
O        0.07470000       1.32630000       0.21420000
C        0.06670000      -0.01530000       0.00140000
C        0.07750000      -0.78550000      -1.14680000
C        0.05890000      -2.13620000      -0.69560000
C        0.03800000      -2.12980000       0.68060000
N        0.04300000      -0.82080000       1.11310000
C        0.01780000      -3.47570000       1.21520000
C        0.02610000      -4.33060000       0.16780000
C        0.05310000      -3.56850000      -1.15190000
H        0.09550000       1.76580000      -0.64100000
H        0.09600000      -0.40590000      -2.15720000
H        0.03190000      -0.47460000       2.05640000
H       -0.00050000      -3.74650000       2.26320000
H        0.01570000      -5.41030000       0.22600000
H       -0.81750000      -3.82100000      -1.77250000
H        0.93750000      -3.83670000      -1.74560000
