17
Properties=species:S:1:pos:R:3 gdb_124822=T pbc="F F F"
C        0.19610000       1.49720000       0.09730000
C        0.04860000      -0.00860000       0.30340000
O        0.05420000      -0.34460000       1.69250000
C       -1.19920000      -0.56830000      -0.39870000
C       -1.33400000      -2.05400000      -0.29100000
C       -0.98540000      -2.93630000       0.68440000
O       -1.31520000      -4.16710000       0.29970000
N       -1.90670000      -4.03660000      -0.99300000
N       -1.89920000      -2.81640000      -1.29580000
H        1.07680000       1.86560000       0.62940000
H        0.30150000       1.74380000      -0.96370000
H       -0.68410000       2.03090000       0.47740000
H        0.93170000      -0.51840000      -0.09880000
H       -0.64220000       0.16690000       2.12050000
H       -2.08890000      -0.07350000       0.01890000
H       -1.17760000      -0.30340000      -1.46090000
H       -0.51270000      -2.81150000       1.64270000
