23
Properties=species:S:1:pos:R:3 gdb_89299=T pbc="F F F"
C       -1.05830000       0.96060000       0.00360000
C       -0.07330000      -0.20180000       0.02910000
C        1.24580000      -0.13800000      -0.80510000
C        2.01600000      -0.75630000       0.39760000
C        2.82990000      -2.00780000       0.19720000
O        2.71720000       0.25740000       1.15660000
C        1.60830000       0.39860000       2.08470000
C        1.22860000       1.84720000       2.32740000
C        0.74220000      -0.61270000       1.29070000
H       -0.57520000       1.92470000       0.17570000
H       -1.55440000       1.01410000      -0.97220000
H       -1.83920000       0.83700000       0.76260000
H       -0.61760000      -1.10510000      -0.27170000
H        1.24310000      -0.71730000      -1.73270000
H        1.59980000       0.87360000      -1.01890000
H        3.71410000      -1.78850000      -0.41240000
H        3.17030000      -2.41090000       1.15580000
H        2.24500000      -2.77650000      -0.31870000
H        1.88680000      -0.05280000       3.04960000
H        0.32680000       1.91450000       2.94510000
H        2.04160000       2.35340000       2.85840000
H        1.05850000       2.38430000       1.39280000
H        0.32550000      -1.42430000       1.88950000
