17
Properties=species:S:1:pos:R:3 gdb_57990=T pbc="F F F"
C        0.52350000       1.31780000       0.42250000
C       -0.07260000       0.01060000      -0.11910000
O       -1.40990000       0.18670000      -0.51510000
C        0.73590000      -0.50740000      -1.30220000
O        0.28570000      -0.59110000      -2.41980000
O        1.98500000      -0.85370000      -0.95060000
C        2.84600000      -1.31470000      -2.01850000
C        3.56040000      -0.21600000      -2.65040000
C        4.16380000       0.68180000      -3.17140000
H        1.54370000       1.16460000       0.78270000
H        0.53120000       2.08400000      -0.35850000
H       -0.09780000       1.67510000       1.24710000
H       -0.02140000      -0.75470000       0.66970000
H       -1.42770000       0.03860000      -1.47190000
H        3.54150000      -2.00690000      -1.53760000
H        2.24330000      -1.85630000      -2.75220000
H        4.69130000       1.47640000      -3.63930000
