18
Properties=species:S:1:pos:R:3 gdb_12142=T pbc="F F F"
O       -0.20620000       1.41210000      -0.00190000
C       -0.09690000       0.03330000       0.04460000
C       -0.34690000      -0.83800000      -1.15410000
C       -1.23780000      -0.97380000       0.06730000
C       -0.50390000      -1.76530000       1.13240000
C       -1.11690000      -2.42820000       2.32560000
C       -0.41540000      -3.25770000       1.26780000
C        0.64540000      -0.73100000       1.15420000
H        0.51120000       1.75370000      -0.54690000
H       -0.80760000      -0.31510000      -1.98680000
H        0.33390000      -1.63960000      -1.43280000
H       -2.30690000      -0.80470000       0.01980000
H       -0.62930000      -2.30680000       3.28790000
H       -2.19970000      -2.48350000       2.38060000
H       -1.02530000      -3.87080000       0.61200000
H        0.54490000      -3.69540000       1.52180000
H        1.65540000      -1.08760000       0.92180000
H        0.66690000      -0.15840000       2.08560000
