17
Properties=species:S:1:pos:R:3 gdb_15870=T pbc="F F F"
C        0.01370000       1.46670000      -0.02280000
N       -0.05420000       0.02880000       0.10520000
C       -1.31560000      -0.60750000       0.52870000
C       -0.48470000      -1.67190000       1.29070000
O       -0.26040000      -2.87630000       0.61670000
C        0.68230000      -0.61950000       1.21630000
C        2.02630000      -1.07540000       0.91450000
C        3.13020000      -1.47310000       0.65160000
H        1.04230000       1.76780000      -0.24520000
H       -0.62110000       1.79480000      -0.85230000
H       -0.31320000       1.99800000       0.89150000
H       -1.91750000       0.01570000       1.21170000
H       -1.95090000      -0.96900000      -0.28640000
H       -0.82140000      -1.93120000       2.29460000
H        0.17900000      -2.67180000      -0.21740000
H        0.68830000      -0.00300000       2.13270000
H        4.10790000      -1.82040000       0.42470000
