17
Properties=species:S:1:pos:R:3 gdb_37315=T pbc="F F F"
C        0.08320000       1.49070000       0.13970000
O        1.37950000       2.02510000      -0.08070000
C        2.01580000       1.59450000      -1.25240000
C        3.51420000       1.30850000      -1.06520000
O        3.63080000       0.26000000      -0.10170000
C        3.34010000      -0.10480000      -1.44740000
C        1.82440000       0.08670000      -1.66820000
C        0.83420000      -0.66350000      -0.84230000
C        0.00570000      -0.00360000      -0.03670000
H       -0.16930000       1.76310000       1.16980000
H       -0.65940000       1.98910000      -0.51000000
H        1.81920000       2.27710000      -2.09230000
H        4.35630000       1.98090000      -1.17670000
H        4.01980000      -0.78600000      -1.94650000
H        1.58530000       0.01530000      -2.73600000
H        0.78720000      -1.74540000      -0.93750000
H       -0.76080000      -0.52300000       0.53160000
