14
Properties=species:S:1:pos:R:3 gdb_22793=T pbc="F F F"
O        0.00180000       1.35210000       0.08340000
N        0.03420000      -0.01690000      -0.05810000
C       -1.10490000      -0.59910000      -0.00740000
C       -1.10840000      -2.10820000      -0.13500000
N       -2.18190000      -2.65200000      -0.96300000
C       -3.24420000      -1.96360000      -1.02550000
N       -3.45460000      -0.72890000      -0.41470000
C       -2.44350000       0.06850000       0.11990000
O       -2.67770000       1.15750000       0.58810000
H        0.93060000       1.59040000      -0.02270000
H       -0.14030000      -2.43320000      -0.52270000
H       -1.20990000      -2.55890000       0.86580000
H       -4.10220000      -2.33180000      -1.58630000
H       -4.36830000      -0.29820000      -0.44930000
