17
Properties=species:S:1:pos:R:3 gdb_72029=T pbc="F F F"
O       -0.04770000       1.37760000      -0.02140000
C        0.01710000      -0.01090000      -0.07130000
C        0.88950000      -0.72890000      -1.11810000
C        0.71540000      -2.10180000      -0.44280000
O        1.27720000      -1.84750000       0.86050000
C        0.34440000      -0.85330000       1.26340000
C       -1.04990000      -1.49590000       1.15130000
C       -0.82510000      -2.16940000      -0.18430000
C       -1.33830000      -0.74010000      -0.12280000
H        0.84960000       1.71840000       0.06050000
H        0.45750000      -0.66730000      -2.12070000
H        1.93740000      -0.41440000      -1.12990000
H        1.18410000      -2.97350000      -0.89420000
H        0.65930000      -0.33060000       2.16390000
H       -1.70410000      -1.86190000       1.93160000
H       -1.44760000      -2.98790000      -0.51680000
H       -2.26580000      -0.37720000      -0.54560000
