16
Properties=species:S:1:pos:R:3 gdb_69872=T pbc="F F F"
C       -0.06220000       1.55600000       0.14570000
C        0.07460000       0.07030000       0.06820000
N       -0.84800000      -0.89370000       0.69680000
C        0.60580000      -0.94300000       1.00690000
C        1.31090000      -1.68790000      -0.17540000
O        0.34690000      -2.06220000      -1.14790000
C        0.78710000      -0.69600000      -1.13430000
C        1.33030000      -0.09730000      -2.29990000
C        1.77460000       0.46340000      -3.26740000
H        0.86060000       2.05000000      -0.17490000
H       -0.87130000       1.91140000      -0.50250000
H       -0.28090000       1.87500000       1.17020000
H       -1.29290000      -0.40340000       1.47430000
H        0.99000000      -0.83350000       2.01220000
H        2.25790000      -2.21350000      -0.15640000
H        2.16960000       0.94290000      -4.12870000
