17
Properties=species:S:1:pos:R:3 gdb_113750=T pbc="F F F"
O       -0.04630000       1.37400000      -0.65590000
C        0.03990000       0.22510000       0.16770000
C       -1.30030000      -0.46890000       0.25820000
N       -1.72000000      -1.20290000      -0.95170000
C       -1.49940000      -1.94140000       0.29760000
C       -0.33790000      -2.92670000       0.30230000
O        0.35820000      -2.96040000       1.53390000
C       -0.82130000      -4.27220000      -0.07620000
N       -1.22760000      -5.32320000      -0.33240000
H       -0.33460000       1.06710000      -1.52340000
H        0.81230000      -0.46800000      -0.19200000
H        0.34720000       0.57480000       1.15810000
H       -2.06460000       0.12060000       0.76210000
H       -2.71280000      -1.08840000      -1.13310000
H       -2.37590000      -2.29640000       0.83810000
H        0.39070000      -2.61140000      -0.44840000
H       -0.23830000      -3.29070000       2.21570000
