14
Properties=species:S:1:pos:R:3 gdb_27913=T pbc="F F F"
N       -0.01640000       1.28630000      -0.16260000
C        0.00250000      -0.07610000      -0.09530000
N       -1.18560000      -0.69670000      -0.07410000
C       -1.13930000      -2.02780000      -0.05610000
O       -2.31590000      -2.67490000      -0.03570000
C        0.03940000      -2.76560000      -0.05470000
C        1.19740000      -1.99600000      -0.06830000
O        2.39140000      -2.61070000      -0.06030000
N        1.20730000      -0.66400000      -0.08660000
H        0.84030000       1.76430000       0.05880000
H       -0.88350000       1.74080000       0.06790000
H       -2.99760000      -1.98850000      -0.04490000
H        0.05420000      -3.84450000      -0.03830000
H        3.05400000      -1.90590000      -0.07660000
