17
Properties=species:S:1:pos:R:3 gdb_127700=T pbc="F F F"
C       -0.19760000       1.41430000       0.00790000
N       -0.01870000      -0.02250000       0.03270000
N        0.18390000      -0.73820000      -1.06320000
N        0.30050000      -1.98100000      -0.67010000
C        0.16110000      -1.97290000       0.68180000
N       -0.04220000      -0.74310000       1.15090000
C        0.22570000      -3.17150000       1.52680000
C       -0.31370000      -4.48820000       1.00000000
C        1.16510000      -4.30210000       1.15080000
H        0.58330000       1.89560000       0.60070000
H       -0.13050000       1.73160000      -1.03190000
H       -1.17540000       1.67350000       0.41960000
H        0.09200000      -2.96320000       2.58140000
H       -0.83500000      -5.12820000       1.70290000
H       -0.72200000      -4.47740000      -0.00380000
H        1.74930000      -4.16650000       0.24820000
H        1.67690000      -4.81220000       1.95900000
