16
Properties=species:S:1:pos:R:3 gdb_125161=T pbc="F F F"
C        0.03100000       1.49500000       0.00420000
C       -0.05050000       0.00980000      -0.10940000
C       -0.14880000      -0.84120000      -1.18780000
C        0.20320000      -1.41800000      -2.55020000
C        1.46300000      -2.25820000      -2.37820000
C        0.14830000      -2.79140000      -1.87700000
N       -0.23680000      -2.07890000      -0.64190000
N       -0.12210000      -2.06660000       0.69920000
N       -0.09010000      -0.79550000       1.01380000
H        0.62680000       1.92470000      -0.80630000
H       -0.96070000       1.96040000      -0.03280000
H        0.48830000       1.76690000       0.95830000
H       -0.19810000      -1.13620000      -3.51230000
H        1.84100000      -2.73350000      -3.28000000
H        2.22350000      -1.95070000      -1.66800000
H       -0.33340000      -3.70900000      -2.18160000
