20
Properties=species:S:1:pos:R:3 gdb_69255=T pbc="F F F"
C       -0.08190000       1.52180000       0.01890000
C       -0.01920000       0.00750000       0.00410000
C       -0.76770000      -0.74250000       1.05980000
C        0.75930000      -0.68020000       1.12540000
C        1.54570000      -1.91090000       0.83550000
O        2.41610000      -2.31170000       1.57960000
C        1.24670000      -2.58110000      -0.50690000
N        1.16220000      -1.60340000      -1.59490000
C        0.08160000      -0.63880000      -1.39700000
H        0.80860000       1.96000000      -0.44630000
H       -0.95780000       1.88190000      -0.53340000
H       -0.15150000       1.90810000       1.04060000
H       -1.30350000      -0.18440000       1.82040000
H       -1.22450000      -1.69200000       0.80010000
H        1.18550000      -0.06500000       1.91140000
H        2.03900000      -3.30680000      -0.70660000
H        0.29650000      -3.13080000      -0.46040000
H        2.04780000      -1.10930000      -1.65670000
H       -0.86480000      -1.14440000      -1.62990000
H        0.20550000       0.15150000      -2.14380000
