12
Properties=species:S:1:pos:R:3 gdb_2810=T pbc="F F F"
C       -0.18720000      -1.21420000       0.00380000
C       -0.07870000      -0.01780000       0.02910000
C        0.02260000       1.41330000       0.01560000
N        0.52720000       2.08290000       1.22910000
C        1.35150000       2.13210000       0.00700000
C        2.60480000       1.43380000       0.01170000
C        3.66500000       0.86940000      -0.02100000
H       -0.27150000      -2.27260000      -0.00650000
H       -0.76640000       1.91650000      -0.54040000
H        0.04740000       2.97140000       1.35270000
H        1.35660000       3.06480000      -0.55420000
H        4.59710000       0.36090000      -0.03740000
