18
Properties=species:S:1:pos:R:3 gdb_59624=T pbc="F F F"
C        0.01870000       1.53670000       0.10720000
C       -0.05060000       0.01530000      -0.02810000
O       -1.38560000      -0.46110000      -0.03020000
C        0.68580000      -0.48700000      -1.27610000
C        0.67900000      -2.01190000      -1.45070000
O        0.38730000      -2.19110000      -2.84140000
C       -0.11830000      -1.03510000      -3.34920000
N       -0.60740000      -0.85180000      -4.49180000
O       -0.03050000      -0.03400000      -2.43620000
H        1.05410000       1.87690000       0.21250000
H       -0.40820000       2.02090000      -0.77670000
H       -0.54400000       1.85540000       0.98770000
H        0.42410000      -0.45110000       0.84470000
H       -1.80820000      -0.10010000      -0.81970000
H        1.70260000      -0.07680000      -1.31390000
H        1.64190000      -2.47720000      -1.23250000
H       -0.11040000      -2.47480000      -0.85090000
H       -0.61410000      -1.72540000      -5.01260000
