16
Properties=species:S:1:pos:R:3 gdb_97339=T pbc="F F F"
C        0.16580000       1.29260000      -0.15660000
N        0.64350000      -0.07670000      -0.13760000
C        0.69700000      -0.64910000       0.97480000
O        1.16380000      -1.94480000       1.01880000
C        1.12130000      -2.59840000       2.21410000
O        0.66530000      -2.14920000       3.23120000
C        1.69820000      -3.97590000       2.10230000
C        1.52870000      -4.78200000       0.87580000
O        2.77210000      -4.17640000       1.18950000
H        0.93910000       1.93550000      -0.59030000
H       -0.70860000       1.35830000      -0.81280000
H       -0.10600000       1.68780000       0.83390000
H        0.41930000      -0.24990000       1.95230000
H        1.79040000      -4.46830000       3.06700000
H        1.49000000      -5.86550000       0.97340000
H        1.00080000      -4.35100000       0.02870000
