15
Properties=species:S:1:pos:R:3 gdb_28487=T pbc="F F F"
C       -0.00960000       1.50240000       0.04050000
C        0.03440000      -0.00160000       0.01910000
N        0.01510000      -0.60790000      -1.17090000
C        0.05460000      -1.93510000      -1.16790000
O        0.03400000      -2.52200000      -2.37830000
N        0.11170000      -2.73690000      -0.10330000
C        0.13080000      -2.12870000       1.08150000
C        0.09360000      -0.74500000       1.20520000
O        0.11660000      -0.19710000       2.45490000
H        0.87930000       1.92490000       0.52690000
H       -0.05250000       1.87780000      -0.98210000
H       -0.89000000       1.87250000       0.58190000
H        0.06740000      -3.47340000      -2.21390000
H        0.17720000      -2.75200000       1.97100000
H        0.08540000       0.76200000       2.38580000
