18
Properties=species:S:1:pos:R:3 gdb_6783=T pbc="F F F"
C       -0.12190000       1.40820000      -0.18990000
O       -0.04930000       0.01060000      -0.03320000
C        0.70240000      -0.62540000      -1.05030000
C        0.64800000      -2.12160000      -0.79700000
N       -0.72610000      -2.58440000      -0.82250000
C       -1.02700000      -3.87500000      -1.18750000
N       -2.35540000      -4.22810000      -0.96160000
O       -0.21200000      -4.65220000      -1.65070000
H        0.87560000       1.87320000      -0.15680000
H       -0.59870000       1.68800000      -1.14240000
H       -0.72120000       1.80070000       0.63530000
H        0.27920000      -0.39110000      -2.04070000
H        1.74780000      -0.27670000      -1.03550000
H        1.19540000      -2.66510000      -1.56950000
H        1.12960000      -2.34030000       0.16710000
H       -1.35930000      -2.08600000      -0.21700000
H       -3.04770000      -3.49670000      -1.03080000
H       -2.60970000      -5.07390000      -1.44930000
