15
Properties=species:S:1:pos:R:3 gdb_82686=T pbc="F F F"
N        0.20450000       1.45590000       0.12220000
C        0.01250000       0.04160000       0.04590000
C        0.15370000      -0.73630000       1.37580000
O       -0.84830000      -0.10640000       2.23590000
C       -1.82540000      -0.77010000       1.45000000
C       -0.90690000      -1.78120000       0.87870000
C       -1.38850000      -0.64330000      -0.03850000
C       -2.29040000      -0.69420000      -1.13170000
N       -3.01770000      -0.71280000      -2.03370000
H        0.00880000       1.91610000      -0.75940000
H       -0.39470000       1.85190000       0.83840000
H        0.66040000      -0.39630000      -0.71830000
H        1.10710000      -0.90370000       1.86860000
H       -2.85690000      -0.79630000       1.77330000
H       -0.93390000      -2.85330000       0.75280000
