16
Properties=species:S:1:pos:R:3 gdb_32165=T pbc="F F F"
N       -0.06550000       1.32240000      -0.11460000
C       -0.01310000      -0.04180000      -0.04900000
N       -1.18520000      -0.69240000      -0.03140000
C       -1.12190000      -2.02500000      -0.02060000
C       -2.45580000      -2.72990000      -0.00580000
O       -2.26170000      -4.12950000       0.04270000
C        0.08760000      -2.71350000      -0.02230000
C        1.23420000      -1.92620000      -0.02540000
N        1.21260000      -0.59650000      -0.03740000
H        0.78010000       1.81540000       0.11830000
H       -0.94240000       1.75320000       0.12490000
H       -3.02590000      -2.36080000       0.86090000
H       -3.01240000      -2.42130000      -0.90470000
H       -3.12370000      -4.55300000       0.02240000
H        0.12100000      -3.79270000      -0.01120000
H        2.22080000      -2.38630000      -0.01510000
