19
Properties=species:S:1:pos:R:3 gdb_103107=T pbc="F F F"
C       -0.29030000       1.40160000       0.14570000
N        0.04250000      -0.01820000       0.22780000
C        1.35440000      -0.48130000      -0.25680000
C        2.33930000       0.46320000      -0.72210000
N        3.12200000       1.22130000      -1.11180000
C        1.00060000      -0.52230000       1.21060000
C        1.68750000       0.38450000       2.21050000
C        0.55680000      -1.86500000       1.77690000
O       -0.51640000      -1.69600000       2.68410000
H        0.56430000       2.08430000       0.22590000
H       -0.78000000       1.58420000      -0.81500000
H       -1.00200000       1.63550000       0.94230000
H        1.32870000      -1.39840000      -0.84120000
H        1.95050000       1.35900000       1.79810000
H        1.03350000       0.52610000       3.07560000
H        2.61090000      -0.08580000       2.56280000
H        0.28310000      -2.53930000       0.95310000
H        1.37130000      -2.32910000       2.34250000
H       -1.24990000      -1.33630000       2.17150000
