17
Properties=species:S:1:pos:R:3 gdb_29344=T pbc="F F F"
C       -0.01550000       1.49770000       0.04030000
C       -0.03980000       0.00380000       0.02730000
C       -0.14340000      -0.82670000      -1.03740000
O       -0.13010000      -2.13660000      -0.64420000
C       -0.01520000      -2.15520000       0.70580000
C        0.02160000      -3.47740000       1.37780000
C        0.04530000      -0.87020000       1.18280000
C        0.16670000      -0.47480000       2.53370000
C        0.27000000      -0.11530000       3.67960000
H        0.91150000       1.87570000       0.48530000
H       -0.09580000       1.90250000      -0.97200000
H       -0.84120000       1.90300000       0.63530000
H       -0.23140000      -0.65780000      -2.09800000
H        0.86920000      -4.07910000       1.03060000
H        0.11560000      -3.33320000       2.45580000
H       -0.89070000      -4.05180000       1.18060000
H        0.36100000       0.19600000       4.69030000
