17
Properties=species:S:1:pos:R:3 gdb_54286=T pbc="F F F"
N        0.39770000      -0.17140000       1.57750000
C        0.22560000      -0.91380000       0.43960000
O        1.15690000      -1.46330000      -0.12020000
C       -1.18930000      -1.05600000      -0.07780000
C       -2.36620000      -0.63020000       0.79690000
C       -2.43650000       0.81280000       1.04390000
N       -2.44790000       1.94960000       1.25470000
C       -1.32720000      -0.90600000      -1.58640000
C       -1.40990000      -2.26460000      -0.96970000
H        1.36060000       0.00650000       1.82170000
H       -0.26560000       0.53960000       1.84470000
H       -3.30280000      -0.93510000       0.31870000
H       -2.32950000      -1.13990000       1.76710000
H       -2.23380000      -0.43860000      -1.95540000
H       -0.42220000      -0.65470000      -2.12570000
H       -0.55380000      -2.91690000      -1.08490000
H       -2.37590000      -2.75410000      -0.91190000
