14
Properties=species:S:1:pos:R:3 gdb_5502=T pbc="F F F"
C       -0.02750000       1.50750000       0.03870000
C       -0.00980000       0.01000000       0.02830000
C       -0.02810000      -0.80230000      -1.05770000
O       -0.00270000      -2.12140000      -0.68760000
C        0.03250000      -2.15240000       0.65390000
C        0.03060000      -0.88360000       1.16790000
C        0.06340000      -0.54720000       2.59080000
O        0.09690000      -1.36000000       3.48950000
H        0.86310000       1.91820000       0.52680000
H       -0.06060000       1.90270000      -0.97990000
H       -0.89910000       1.89710000       0.57580000
H       -0.05790000      -0.61790000      -2.11890000
H        0.05630000      -3.12350000       1.11970000
H        0.05550000       0.54290000       2.81150000
