23
Properties=species:S:1:pos:R:3 gdb_116299=T pbc="F F F"
C       -0.17400000       1.60450000       0.09010000
C       -0.05110000       0.08290000      -0.02850000
C        0.61450000      -0.54530000       1.18640000
O       -0.17920000      -0.31240000       2.34600000
C        0.32640000      -1.17670000       3.34650000
C        0.65060000      -2.50150000       2.62620000
C        0.82850000      -2.07810000       1.14090000
O       -0.13240000      -2.66730000       0.28490000
C        0.12940000      -4.01590000      -0.02040000
H        0.81050000       2.07820000       0.17960000
H       -0.66820000       2.02760000      -0.78980000
H       -0.75630000       1.87690000       0.97420000
H       -1.03560000      -0.37500000      -0.15490000
H        0.53370000      -0.18500000      -0.91630000
H        1.60890000      -0.08470000       1.34080000
H        1.23650000      -0.74950000       3.80060000
H       -0.43160000      -1.27410000       4.12750000
H        1.53100000      -2.99670000       3.04260000
H       -0.19350000      -3.19300000       2.68950000
H        1.83550000      -2.31420000       0.76540000
H       -0.64250000      -4.34560000      -0.72020000
H        1.11650000      -4.13980000      -0.49430000
H        0.09490000      -4.66290000       0.86930000
