17
Properties=species:S:1:pos:R:3 gdb_27734=T pbc="F F F"
C        0.12050000       1.45500000      -0.01470000
C       -0.05490000      -0.02040000      -0.01630000
C       -1.15490000      -0.82700000      -0.11330000
C       -0.68870000      -2.17350000      -0.05510000
C       -1.53610000      -3.40590000      -0.12290000
C        0.68040000      -2.08570000       0.07490000
O        1.06220000      -0.76810000       0.09810000
C        1.70970000      -3.09840000       0.18320000
O        2.89950000      -2.88910000       0.29510000
H        0.76180000       1.77570000      -0.84280000
H       -0.84790000       1.94910000      -0.11290000
H        0.59310000       1.79410000       0.91350000
H       -2.17800000      -0.49760000      -0.21440000
H       -2.10900000      -3.43340000      -1.05630000
H       -0.94260000      -4.32020000      -0.06730000
H       -2.26100000      -3.42560000       0.69850000
H        1.30460000      -4.13320000       0.15440000
