16
Properties=species:S:1:pos:R:3 gdb_42852=T pbc="F F F"
O       -0.15400000      -0.00550000       0.01490000
C       -0.08910000       1.18290000       0.02050000
C       -0.99470000       2.42860000      -0.01140000
C       -0.02650000       2.96780000       1.09740000
C        0.95310000       2.31840000       0.06020000
C        0.05420000       2.99410000      -1.03370000
C        0.09140000       2.46430000      -2.47120000
C       -1.00060000       3.00770000      -3.27780000
N       -1.86960000       3.45340000      -3.89530000
H       -2.07770000       2.51060000      -0.05670000
H        0.03250000       4.05670000       1.15510000
H       -0.08770000       2.50880000       2.08450000
H        2.03930000       2.27480000       0.09810000
H        0.11080000       4.08550000      -1.01350000
H        1.04200000       2.73640000      -2.94460000
H        0.03030000       1.36990000      -2.48760000
