18
Properties=species:S:1:pos:R:3 gdb_120130=T pbc="F F F"
O       -0.64400000       0.30860000       1.25090000
C       -0.22490000      -0.00880000      -0.07320000
C       -1.32110000      -0.84480000      -0.72940000
C       -1.44570000      -2.24110000      -0.14280000
C       -1.88740000      -2.54090000       1.25460000
N       -2.92160000      -1.61540000       1.72200000
C       -3.76610000      -1.93060000       0.63720000
O       -4.83230000      -1.49420000       0.30540000
C       -2.78330000      -2.96410000       0.10120000
H        0.06210000       0.79090000       1.69010000
H       -0.06310000       0.90790000      -0.65970000
H        0.72380000      -0.56810000      -0.06060000
H       -2.26420000      -0.29590000      -0.64510000
H       -1.10770000      -0.92630000      -1.80120000
H       -0.68440000      -2.93530000      -0.49940000
H       -1.35130000      -3.16710000       1.95560000
H       -2.68150000      -0.65720000       1.95680000
H       -3.00030000      -3.94450000      -0.29840000
