21
Properties=species:S:1:pos:R:3 gdb_92505=T pbc="F F F"
O        0.02200000       1.39760000       0.58040000
C        0.02170000       0.05300000       0.09440000
C        0.73210000      -0.92470000       1.05760000
C       -0.31070000      -1.25560000       2.13050000
C       -0.64240000      -0.15090000       3.17950000
C       -2.08110000      -0.02160000       2.60380000
C       -1.72140000      -1.02250000       1.46730000
O       -2.59160000      -2.12060000       1.29040000
C       -1.43340000      -0.42890000       0.07880000
H        0.93850000       1.67830000       0.66820000
H        0.46620000       0.02480000      -0.91060000
H        1.00670000      -1.83150000       0.50480000
H        1.65980000      -0.50050000       1.46100000
H       -0.17380000      -2.24900000       2.56500000
H       -0.58780000      -0.47600000       4.22130000
H       -0.04670000       0.75410000       3.06270000
H       -2.85600000      -0.41900000       3.26800000
H       -2.38410000       0.97650000       2.28030000
H       -2.83660000      -2.45130000       2.16050000
H       -2.11600000       0.37760000      -0.20030000
H       -1.54460000      -1.23810000      -0.64970000
