12
Properties=species:S:1:pos:R:3 gdb_131002=T pbc="F F F"
O       -0.23590000       0.19870000       0.49110000
C        0.03920000       1.12460000      -0.22040000
C        1.36880000       1.85420000      -0.12820000
O        1.35180000       2.89250000      -1.11660000
C        2.43520000       3.64140000      -1.18730000
N        3.51370000       3.54050000      -0.46010000
O        4.30720000       4.54210000      -0.93890000
N        3.63820000       5.20430000      -1.95520000
N        2.51200000       4.66670000      -2.10860000
H       -0.64790000       1.52090000      -0.99800000
H        1.50120000       2.27920000       0.87360000
H        2.19720000       1.16050000      -0.31350000
