17
Properties=species:S:1:pos:R:3 gdb_127556=T pbc="F F F"
C        0.02940000       1.41370000       0.04920000
N        0.02260000      -0.03420000       0.01310000
N       -0.17430000      -0.71270000      -1.10870000
C       -0.16120000      -1.98710000      -0.71080000
C        0.04980000      -2.02900000       0.67700000
N        0.15760000      -0.76740000       1.11250000
C        0.14750000      -3.18440000       1.58870000
C        1.17900000      -3.20040000       2.66660000
N       -0.23810000      -3.03330000       3.00450000
H        0.89470000       1.75980000       0.61750000
H        0.08570000       1.76730000      -0.97900000
H       -0.88340000       1.78900000       0.52080000
H       -0.29430000      -2.79170000      -1.41610000
H       -0.15290000      -4.13010000       1.14570000
H        1.61940000      -4.14450000       2.97580000
H        1.83510000      -2.33690000       2.72800000
H       -0.42580000      -2.04670000       3.17400000
