19
Properties=species:S:1:pos:R:3 gdb_70391=T pbc="F F F"
C       -0.09890000       1.54710000       0.07780000
C        0.10250000       0.06470000       0.04210000
N       -0.78160000      -0.87880000       0.76180000
C        0.68260000      -0.90130000       1.01320000
C        1.27850000      -1.76910000      -0.09310000
C        0.66610000      -0.76550000      -1.16060000
C       -0.35370000      -1.32790000      -2.15440000
C        1.72300000      -0.03120000      -1.84950000
N        2.55410000       0.56290000      -2.39220000
H        0.77480000       2.07090000      -0.32110000
H       -0.97040000       1.84290000      -0.51770000
H       -0.26220000       1.88950000       1.10520000
H       -1.21640000      -0.35270000       1.51960000
H        1.07850000      -0.73240000       2.00710000
H        2.36870000      -1.77950000      -0.11150000
H        0.89020000      -2.78840000      -0.15120000
H       -1.15390000      -1.81900000      -1.59830000
H       -0.78350000      -0.53130000      -2.76910000
H        0.11720000      -2.05400000      -2.82330000
