17
Properties=species:S:1:pos:R:3 gdb_78579=T pbc="F F F"
C       -0.18870000       1.62240000      -0.05690000
C       -0.03370000       0.11240000      -0.00060000
C        1.19140000      -0.55720000      -0.64040000
C        2.14940000      -0.21090000       0.53790000
C        2.52730000      -1.69240000       0.62580000
C        2.91650000      -2.24780000       1.91540000
N        3.23450000      -2.66910000       2.94400000
N        1.03550000      -1.79920000       0.28380000
C        0.75150000      -0.53500000       1.14950000
H        0.75060000       2.13790000       0.16810000
H       -0.51740000       1.94350000      -1.05060000
H       -0.93800000       1.96260000       0.66510000
H       -0.97070000      -0.40920000      -0.22460000
H        1.45690000      -0.69130000      -1.69110000
H        2.78360000       0.66700000       0.68350000
H        3.16990000      -2.09410000      -0.16410000
H        0.49910000      -0.64130000       2.20520000
