21
Properties=species:S:1:pos:R:3 gdb_118011=T pbc="F F F"
C        0.12110000       1.54150000       0.07100000
C        0.07760000       0.02430000       0.00560000
O        0.75650000      -0.48900000       1.13760000
C        0.77910000      -1.90640000       1.25410000
C        1.95540000      -2.51250000       0.49010000
C        0.88510000      -2.17340000       2.77420000
O        1.99600000      -1.47830000       3.31730000
C       -0.36940000      -1.82940000       3.45710000
C       -1.39670000      -1.54790000       4.01400000
H        1.15480000       1.89860000       0.05510000
H       -0.40800000       1.97380000      -0.78340000
H       -0.35200000       1.89710000       0.99060000
H       -0.96420000      -0.33350000       0.00280000
H        0.54850000      -0.33180000      -0.92390000
H       -0.17080000      -2.32610000       0.89220000
H        1.92530000      -3.60590000       0.53930000
H        1.92700000      -2.22400000      -0.56430000
H        2.89590000      -2.16830000       0.92660000
H        1.09360000      -3.23850000       2.92910000
H        1.88270000      -0.55940000       3.04010000
H       -2.29970000      -1.30130000       4.51560000
