16
Properties=species:S:1:pos:R:3 gdb_3336=T pbc="F F F"
C        0.00130000       1.48700000       0.14600000
C        1.40170000       2.08440000      -0.10120000
C        2.07700000       1.49980000      -1.33800000
N        3.07990000       0.44100000      -1.08680000
C        1.77420000       0.09480000      -1.70770000
C        0.79240000      -0.64920000      -0.87810000
C       -0.02870000      -0.01110000      -0.04370000
H       -0.33180000       1.74150000       1.15830000
H       -0.73320000       1.95080000      -0.52940000
H        1.33260000       3.17410000      -0.18620000
H        2.03770000       1.86640000       0.76210000
H        2.28510000       2.19360000      -2.14870000
H        3.79380000       0.46990000      -1.81220000
H        1.79440000      -0.17010000      -2.76340000
H        0.75000000      -1.73000000      -0.98510000
H       -0.76150000      -0.57250000       0.53060000
