19
Properties=species:S:1:pos:R:3 gdb_72124=T pbc="F F F"
O       -0.05140000       1.39190000       0.00340000
C       -0.00860000       0.00230000      -0.03320000
C        0.19450000      -0.80410000      -1.33770000
C       -0.44190000      -1.93760000      -0.49490000
C        0.68480000      -2.20080000       0.51510000
C        0.75940000      -0.74720000       1.12120000
C       -0.25080000      -0.74050000       2.25040000
C       -1.47140000      -0.84440000       1.71130000
C       -1.31870000      -0.79070000       0.22200000
H        0.85190000       1.72560000       0.01480000
H       -0.46250000      -0.42890000      -2.12590000
H        1.20540000      -0.96040000      -1.72680000
H       -0.93170000      -2.79220000      -0.95700000
H        0.45410000      -2.94770000       1.27730000
H        1.60780000      -2.49350000       0.00530000
H        1.76410000      -0.38850000       1.35410000
H        0.00830000      -0.78740000       3.30120000
H       -2.40970000      -0.96790000       2.23740000
H       -2.17700000      -0.49110000      -0.37910000
