15
Properties=species:S:1:pos:R:3 gdb_2440=T pbc="F F F"
C       -0.07280000       1.55430000       0.06100000
C        1.46650000       1.42780000       0.00480000
C        2.07860000       1.14120000       1.38590000
C        1.30130000       0.01820000       2.04390000
C        0.29510000      -0.54150000       1.37220000
C        0.03240000       0.01170000      -0.01500000
O        1.31590000       0.16230000      -0.70200000
H       -0.54230000       1.99850000       0.94060000
H       -0.46870000       1.98780000      -0.85880000
H        2.03960000       2.15910000      -0.57160000
H        3.13460000       0.86220000       1.27380000
H        2.06150000       2.04690000       2.00760000
H        1.59160000      -0.30770000       3.03850000
H       -0.31610000      -1.34240000       1.77420000
H       -0.68790000      -0.55900000      -0.60400000
