20
Properties=species:S:1:pos:R:3 gdb_56500=T pbc="F F F"
C       -0.03760000       1.56130000       0.10200000
C       -0.03570000       0.02430000      -0.02470000
C       -1.39910000      -0.49880000       0.04030000
C       -2.53060000      -0.90180000       0.09690000
C        0.70890000      -0.50750000      -1.30910000
C        0.77390000      -2.05090000      -1.27950000
C        0.03040000      -0.03010000      -2.61090000
C        2.08780000       0.00770000      -1.27180000
N        3.17300000       0.40560000      -1.24160000
H        0.98250000       1.95100000       0.05670000
H       -0.62950000       2.02490000      -0.69080000
H       -0.47810000       1.85160000       1.05870000
H        0.52040000      -0.37850000       0.83220000
H       -3.52780000      -1.26230000       0.15940000
H       -0.23900000      -2.45920000      -1.30380000
H        1.32760000      -2.42820000      -2.14290000
H        1.27100000      -2.40710000      -0.37290000
H        0.04850000       1.05790000      -2.70240000
H        0.54300000      -0.44960000      -3.48020000
H       -1.00960000      -0.36600000      -2.62120000
