17
Properties=species:S:1:pos:R:3 gdb_48700=T pbc="F F F"
O        0.00740000      -0.02100000      -0.05530000
C        0.07700000       1.17990000      -0.12740000
C        1.31790000       1.96180000      -0.07580000
C        1.40090000       3.40620000       0.37030000
C        1.81950000       3.06180000      -1.02740000
C        3.10090000       2.26660000      -0.98780000
C        3.94960000       1.80880000      -2.12140000
C        4.53110000       2.68260000      -1.01320000
O        2.59170000       1.33370000      -0.01540000
H       -0.82770000       1.82170000      -0.24220000
H        0.45240000       3.92760000       0.45480000
H        2.14140000       3.65100000       1.12520000
H        1.34330000       3.45710000      -1.91460000
H        4.22800000       0.76100000      -2.13200000
H        3.78800000       2.25060000      -3.09940000
H        4.76970000       3.71750000      -1.23390000
H        5.19250000       2.20300000      -0.30010000
