21
Properties=species:S:1:pos:R:3 gdb_96189=T pbc="F F F"
O        0.02560000       1.44360000      -0.14760000
C        0.03930000       0.02840000      -0.00530000
C        0.83560000      -0.44200000       1.21720000
C        0.56410000      -1.92650000       1.47160000
O       -0.80500000      -2.13620000       1.76590000
C       -1.67290000      -1.84390000       0.68270000
C       -2.99040000      -1.28470000       1.26260000
C       -2.41490000       0.14990000       1.08780000
C       -1.40750000      -0.43950000       0.05980000
H        0.93850000       1.74930000      -0.16840000
H        0.49890000      -0.43550000      -0.89660000
H        1.90870000      -0.27320000       1.05880000
H        0.53480000       0.13390000       2.09930000
H        0.87410000      -2.52920000       0.59990000
H        1.12210000      -2.28880000       2.33970000
H       -1.71690000      -2.70120000      -0.00430000
H       -3.83690000      -1.47350000       0.59680000
H       -3.23660000      -1.62570000       2.26980000
H       -3.08630000       0.92940000       0.72490000
H       -1.92410000       0.50540000       1.99570000
H       -1.85040000      -0.39550000      -0.94010000
