9
Properties=species:S:1:pos:R:3 gdb_132002=T pbc="F F F"
O        0.11800000       0.03560000       0.00200000
C        0.01700000       1.20780000       0.00910000
O       -1.13320000       1.95170000       0.02970000
N       -0.81360000       3.32070000       0.03180000
C        0.46300000       3.31820000       0.01310000
O        1.06910000       2.13020000      -0.00160000
N        1.28440000       4.53340000       0.00720000
O        0.67720000       5.58530000       0.02140000
O        2.48780000       4.35290000      -0.01090000
