19
Properties=species:S:1:pos:R:3 gdb_40718=T pbc="F F F"
C        0.11910000       1.48490000      -0.04390000
O        1.15770000       0.51390000      -0.18040000
C       -0.17880000       0.04840000       0.02860000
C       -0.45810000      -0.65220000       1.32540000
C       -1.95280000      -0.94390000       1.67780000
C       -1.50560000      -2.33580000       2.12820000
C       -1.79680000      -3.02700000       3.38450000
O       -2.31390000      -3.49320000       2.12740000
C       -0.16720000      -2.18610000       1.40390000
H        0.14730000       2.07310000       0.87290000
H       -0.12180000       2.04530000      -0.94620000
H       -0.62460000      -0.41900000      -0.85310000
H        0.04390000      -0.11980000       2.13760000
H       -2.44110000      -0.29500000       2.40800000
H       -2.57820000      -1.00310000       0.78040000
H       -1.04080000      -3.66450000       3.84190000
H       -2.53900000      -2.61950000       4.07040000
H       -0.19840000      -2.65540000       0.41480000
H        0.73990000      -2.50610000       1.92030000
