17
Properties=species:S:1:pos:R:3 gdb_1246=T pbc="F F F"
C        0.07150000       1.49130000       0.06990000
N       -0.02190000       0.03890000       0.01960000
C        0.70730000      -0.56950000       1.12420000
C       -1.39420000      -0.44070000      -0.04630000
C       -2.00990000      -0.21440000      -1.44360000
C       -3.35080000      -0.78290000      -1.54520000
N       -4.41020000      -1.24050000      -1.60630000
H        1.12420000       1.78860000       0.07150000
H       -0.39440000       1.94310000      -0.81020000
H       -0.40750000       1.92280000       0.96960000
H        0.29900000      -0.30320000       2.11750000
H        0.68730000      -1.65930000       1.02940000
H        1.75210000      -0.24550000       1.09430000
H       -1.39100000      -1.51640000       0.15240000
H       -2.04580000       0.02260000       0.71820000
H       -2.07240000       0.85310000      -1.67770000
H       -1.36260000      -0.67130000      -2.19920000
