16
Properties=species:S:1:pos:R:3 gdb_55571=T pbc="F F F"
N        0.62040000       0.30710000      -0.53400000
C       -0.30420000       0.23470000       0.45830000
O       -0.31940000       0.94950000       1.43920000
C       -1.42370000      -0.79860000       0.22270000
C       -0.98270000      -2.17210000      -0.26720000
O       -0.16010000      -2.32110000      -1.14080000
C       -1.67060000      -3.35440000       0.42480000
C       -1.33720000      -4.65940000      -0.11640000
C       -1.06650000      -5.74060000      -0.56170000
H        1.41920000       0.90000000      -0.37350000
H        0.69040000      -0.45780000      -1.19140000
H       -2.00100000      -0.86210000       1.14580000
H       -2.08660000      -0.39230000      -0.55350000
H       -1.40960000      -3.29180000       1.49160000
H       -2.75480000      -3.17690000       0.39090000
H       -0.82350000      -6.69520000      -0.95850000
