19
Properties=species:S:1:pos:R:3 gdb_52729=T pbc="F F F"
C       -0.13830000       1.49070000      -0.04010000
C       -0.06820000       0.03700000      -0.03880000
C        0.00080000      -1.16430000      -0.04380000
C        0.04930000      -2.62440000      -0.02740000
C       -1.35990000      -3.23490000      -0.07330000
O        0.84860000      -3.04840000      -1.13520000
C        1.33760000      -4.36180000      -1.04580000
C        2.40150000      -4.53700000      -2.11780000
O        2.90110000      -5.59500000      -2.39290000
H        0.37750000       1.90610000      -0.91260000
H       -1.17600000       1.84040000      -0.07040000
H        0.33100000       1.91320000       0.85500000
H        0.54570000      -2.95180000       0.90250000
H       -1.85900000      -2.94700000      -1.00180000
H       -1.31630000      -4.32640000      -0.01610000
H       -1.95250000      -2.87230000       0.77070000
H        1.80600000      -4.55800000      -0.06470000
H        0.56200000      -5.12880000      -1.19190000
H        2.68450000      -3.58650000      -2.62060000
