20
Properties=species:S:1:pos:R:3 gdb_102624=T pbc="F F F"
C       -0.35380000       1.43700000       0.58260000
C       -0.07230000      -0.03420000       0.27020000
C        0.65770000      -0.25350000      -1.05120000
C        0.93360000      -1.72570000      -1.36040000
O       -0.25340000      -2.49640000      -1.42630000
O       -0.19860000       0.26500000      -2.10610000
C        0.42670000       0.81180000      -3.18290000
N       -0.50530000       1.21690000      -4.09750000
O        1.62360000       0.89780000      -3.32520000
H        0.57370000       2.01810000       0.63470000
H       -0.98710000       1.88730000      -0.18670000
H       -0.86650000       1.54040000       1.54350000
H        0.55070000      -0.47140000       1.06000000
H       -1.00150000      -0.61290000       0.25580000
H        1.59940000       0.30240000      -1.08150000
H        1.50990000      -1.78820000      -2.29460000
H        1.54440000      -2.15700000      -0.56030000
H       -0.81310000      -2.07870000      -2.09040000
H       -1.45880000       1.33140000      -3.79780000
H       -0.16900000       1.81440000      -4.83320000
