17
Properties=species:S:1:pos:R:3 gdb_50353=T pbc="F F F"
O       -0.79130000       0.77390000       0.43990000
C        0.22590000       0.84310000      -0.20090000
C        1.34350000       1.83410000       0.07070000
C        1.25130000       2.53210000       1.47620000
C        2.74050000       2.77370000       1.76810000
C        3.65620000       2.14130000       2.87770000
N        4.40040000       1.42990000       1.77520000
C        3.32960000       1.68390000       0.92770000
N        2.64420000       1.10050000       0.03110000
H        0.42540000       0.16880000      -1.06110000
H        1.29570000       2.57270000      -0.74870000
H        0.64420000       3.43910000       1.46380000
H        0.79220000       1.83240000       2.18090000
H        3.07240000       3.78170000       1.50950000
H        4.28110000       2.82340000       3.45690000
H        3.11950000       1.45410000       3.53990000
H        4.75350000       0.48660000       1.88840000
