15
Properties=species:S:1:pos:R:3 gdb_108746=T pbc="F F F"
C       -0.08570000       1.40330000       0.13570000
N        0.03080000      -0.02570000      -0.05120000
C        0.63260000      -0.58910000      -1.10280000
C        1.25310000      -0.08640000      -2.20350000
C        1.71870000      -1.20030000      -3.00790000
O        2.30690000      -1.26630000      -4.04360000
O        1.34300000      -2.41300000      -2.32790000
C        0.69400000      -2.07370000      -1.18900000
N        0.20480000      -2.84410000      -0.31510000
H        0.90180000       1.87750000       0.19460000
H       -0.64050000       1.86670000      -0.68940000
H       -0.62030000       1.60070000       1.06570000
H       -0.34810000      -0.66830000       0.62860000
H        1.40970000       0.93930000      -2.49410000
H        0.34860000      -3.82570000      -0.55380000
