19
Properties=species:S:1:pos:R:3 gdb_53208=T pbc="F F F"
C        0.19370000       1.58250000      -0.17990000
C        0.12570000       0.13120000      -0.08090000
C        0.07880000      -1.07050000      -0.00370000
C        0.01540000      -2.51560000       0.10500000
C        0.17490000      -3.06030000       1.57230000
C       -1.32800000      -3.37400000       1.56260000
O       -2.13090000      -3.61510000       2.41640000
C       -1.44200000      -3.14030000       0.04800000
C       -2.62750000      -2.34930000      -0.48000000
H        1.22340000       1.92210000      -0.33700000
H       -0.40850000       1.95380000      -1.01650000
H       -0.17700000       2.06160000       0.73290000
H        0.70300000      -2.97800000      -0.60760000
H        0.78610000      -3.96630000       1.63030000
H        0.51390000      -2.35080000       2.32920000
H       -1.38060000      -4.11660000      -0.45060000
H       -2.65650000      -1.34890000      -0.04110000
H       -2.57980000      -2.24100000      -1.56770000
H       -3.55910000      -2.86340000      -0.22560000
