19
Properties=species:S:1:pos:R:3 gdb_76459=T pbc="F F F"
C       -0.39290000       0.91200000      -1.77900000
C       -0.03430000      -0.26150000      -0.89540000
C        1.32220000      -0.54290000      -0.38180000
C        2.54260000       0.30290000      -0.66770000
C        0.23040000      -0.07850000       0.63110000
C        0.27540000       1.27220000       1.25200000
O        0.68400000       2.28570000       0.72740000
C       -0.32010000      -1.15650000       1.49430000
O       -0.71850000      -1.01460000       2.62420000
H        0.14560000       1.81720000      -1.50170000
H       -0.16240000       0.66690000      -2.82160000
H       -1.46450000       1.12410000      -1.71620000
H       -0.63820000      -1.14710000      -1.08760000
H        1.54930000      -1.60100000      -0.25950000
H        2.31290000       1.36750000      -0.68130000
H        3.31160000       0.13310000       0.09200000
H        2.96420000       0.01810000      -1.63790000
H       -0.11450000       1.28190000       2.28730000
H       -0.34130000      -2.15820000       1.00150000
