17
Properties=species:S:1:pos:R:3 gdb_17295=T pbc="F F F"
C       -0.07210000       1.51180000      -0.00860000
C        0.02390000       0.01130000       0.06330000
O       -1.24950000      -0.66250000      -0.00330000
C       -0.93830000      -1.47000000       1.16220000
C        0.45190000      -0.81320000       1.30580000
C        1.61020000      -1.41010000       0.47390000
N        1.00920000      -2.11590000      -0.67750000
C        1.18640000      -0.64890000      -0.74080000
H        0.91430000       1.97180000       0.11330000
H       -0.47090000       1.81560000      -0.98330000
H       -0.73900000       1.89650000       0.76790000
H       -1.62810000      -1.25080000       1.98600000
H       -0.94630000      -2.53830000       0.93240000
H        0.72230000      -0.34120000       2.24910000
H        2.60180000      -1.66390000       0.82760000
H        1.77280000      -2.52850000      -1.21210000
H        1.77250000      -0.19790000      -1.53410000
