23
Properties=species:S:1:pos:R:3 gdb_98190=T pbc="F F F"
C        0.07600000       1.57920000       0.00980000
C       -0.02080000       0.05030000       0.00270000
C       -1.45310000      -0.53550000       0.01320000
C       -2.22510000      -0.12200000       1.28580000
C       -2.24920000      -0.10860000      -1.24000000
C       -1.32480000      -2.06500000       0.00380000
O       -0.29280000      -2.68860000      -0.00950000
O       -2.53690000      -2.66460000       0.01210000
C       -2.51430000      -4.09600000       0.00410000
H        1.12700000       1.88450000       0.00150000
H       -0.39810000       2.02950000      -0.86770000
H       -0.38160000       2.02030000       0.90060000
H        0.50170000      -0.34300000      -0.87570000
H        0.51820000      -0.35210000       0.86680000
H       -2.37940000       0.96040000       1.30430000
H       -3.20380000      -0.60500000       1.32070000
H       -1.67410000      -0.39960000       2.19080000
H       -1.71540000      -0.37640000      -2.15820000
H       -3.22840000      -0.59130000      -1.26150000
H       -2.40370000       0.97390000      -1.24400000
H       -3.55830000      -4.41020000       0.01230000
H       -2.00910000      -4.46990000      -0.89020000
H       -1.99230000      -4.47950000       0.88460000
