15
Properties=species:S:1:pos:R:3 gdb_123633=T pbc="F F F"
C       -0.05000000       1.57750000      -0.05510000
C        1.50120000       1.36460000       0.02350000
N        1.15630000       0.20790000       0.94020000
C       -0.01900000       0.01130000       0.00700000
C        0.68150000      -0.28450000      -1.30630000
N        0.66130000      -1.05740000      -2.34510000
O        1.77810000      -0.62040000      -3.10350000
C        2.39820000       0.40420000      -2.44950000
C        1.75200000       0.66480000      -1.29940000
H       -0.45020000       2.00610000       0.86430000
H       -0.46050000       2.05150000      -0.94670000
H        2.18580000       2.12200000       0.39810000
H        1.83460000      -0.55320000       0.88140000
H       -0.85450000      -0.59520000       0.34710000
H        3.26580000       0.80180000      -2.95200000
