13
Properties=species:S:1:pos:R:3 gdb_25285=T pbc="F F F"
O       -0.14260000       0.02260000      -0.00030000
C       -0.01170000       1.22790000       0.00810000
C        1.24760000       1.91110000      -0.00110000
C        2.29880000       2.51690000      -0.00820000
C        3.52420000       3.18200000      -0.01650000
C        4.82170000       2.72960000      -0.03510000
C        5.65460000       3.88030000      -0.03470000
C        4.81040000       4.95220000      -0.01610000
O        3.52210000       4.55730000      -0.00480000
H       -0.88780000       1.90800000       0.02390000
H        5.12260000       1.69420000      -0.04730000
H        6.73230000       3.91100000      -0.04670000
H        4.97240000       6.01810000      -0.00890000
