16
Properties=species:S:1:pos:R:3 gdb_31545=T pbc="F F F"
C       -0.15340000       1.40200000       0.22380000
N        0.38230000       0.08090000      -0.10050000
C        0.79630000      -0.73250000       0.93990000
C        0.74150000      -2.08160000       1.14090000
C        1.46650000      -2.31920000       2.36360000
O        1.70380000      -3.51170000       2.97990000
C        1.89040000      -1.11430000       2.81780000
O        2.49570000      -0.71130000       3.95120000
O        1.47620000      -0.12250000       1.93750000
H        0.60100000       1.97240000       0.76830000
H       -0.37220000       1.92790000      -0.70840000
H       -1.06670000       1.36800000       0.83680000
H       -0.19620000      -0.43110000      -0.75140000
H        0.25980000      -2.81370000       0.51120000
H        1.22830000      -4.19790000       2.50410000
H        3.42960000      -0.53400000       3.78120000
