16
Properties=species:S:1:pos:R:3 gdb_76005=T pbc="F F F"
C       -0.08350000       1.55820000      -0.08600000
C       -0.00210000       0.04390000      -0.04440000
C       -1.14920000      -0.65480000      -0.56290000
N       -2.06550000      -1.22380000      -0.98260000
C        1.34850000      -0.64980000      -0.23350000
O        2.47560000       0.11760000      -0.44920000
C        0.70300000      -0.67620000       1.13780000
C        1.31340000       0.09650000       2.17480000
C        1.89560000       0.74090000       3.00890000
H        0.87830000       1.99490000       0.18220000
H       -0.33880000       1.88900000      -1.09610000
H       -0.84570000       1.92910000       0.60410000
H        1.34370000      -1.57800000      -0.79790000
H        2.85330000       0.35810000       0.40790000
H        0.25510000      -1.61450000       1.44770000
H        2.37130000       1.30840000       3.77100000
