15
Properties=species:S:1:pos:R:3 gdb_132607=T pbc="F F F"
N        0.01150000       1.37240000       0.17530000
C       -0.01710000      -0.01190000       0.08160000
C       -1.22830000      -0.71440000       0.03530000
C       -1.17310000      -2.10480000      -0.00760000
C        0.05700000      -2.72300000       0.01190000
F        0.17490000      -4.06700000      -0.03640000
C        1.22520000      -1.95130000       0.06550000
N        2.46020000      -2.55910000       0.13520000
N        1.17700000      -0.61900000       0.08500000
H        0.90730000       1.76860000      -0.06860000
H       -0.77000000       1.85970000      -0.23510000
H       -2.17720000      -0.19170000       0.03480000
H       -2.07300000      -2.70810000      -0.05400000
H        2.50830000      -3.50330000      -0.21340000
H        3.23150000      -1.96280000      -0.12240000
