18
Properties=species:S:1:pos:R:3 gdb_106897=T pbc="F F F"
C       -0.26250000       1.49050000      -0.07080000
C        0.09410000       0.00180000       0.06220000
C        0.86690000      -0.50570000      -1.11800000
N        0.25240000      -0.81060000      -2.41850000
C        1.00570000      -1.89710000      -1.68250000
C        2.44900000      -1.62980000      -2.03670000
O        3.36190000      -2.30100000      -2.41610000
C        2.32210000      -0.14860000      -1.50500000
O        2.52620000       0.93650000      -2.35720000
H        0.63730000       2.09600000      -0.21270000
H       -0.91550000       1.66340000      -0.93210000
H       -0.78000000       1.84770000       0.82380000
H        0.69060000      -0.15610000       0.96920000
H       -0.81930000      -0.59540000       0.18450000
H       -0.73860000      -1.00120000      -2.26570000
H        0.50770000      -2.81850000      -1.40820000
H        2.97380000      -0.02090000      -0.63360000
H        1.89170000       0.82910000      -3.07850000
