19
Properties=species:S:1:pos:R:3 gdb_85091=T pbc="F F F"
C       -0.65200000       1.26950000      -0.00590000
C        0.13410000      -0.02680000      -0.12150000
C        1.52260000       0.00480000      -0.82810000
C        2.07360000      -0.87310000       0.29930000
O        3.06190000      -1.52450000       0.44890000
C        0.79950000      -0.64950000       1.18000000
C        1.10930000       0.35630000       2.30660000
C        0.16790000      -1.84670000       1.69530000
C       -0.36070000      -2.84640000       2.10540000
H       -0.05030000       2.07800000       0.42060000
H       -0.99170000       1.59790000      -0.99380000
H       -1.53910000       1.14100000       0.62290000
H       -0.49180000      -0.79730000      -0.57840000
H        1.59950000      -0.40900000      -1.83610000
H        1.98870000       0.99710000      -0.82680000
H        1.63700000       1.23560000       1.92510000
H        0.18640000       0.68860000       2.78950000
H        1.74220000      -0.12040000       3.05880000
H       -0.82000000      -3.73150000       2.47030000
