21
Properties=species:S:1:pos:R:3 gdb_113779=T pbc="F F F"
C       -0.68790000      -0.64140000       3.41640000
C       -0.35820000      -0.80560000       1.95090000
C        0.89010000      -0.22720000       1.41940000
O        0.80500000      -1.62320000       1.70310000
C       -1.46800000      -1.08310000       0.96270000
C       -2.91900000      -1.25310000       1.34040000
C       -2.49710000      -0.06590000       0.50650000
C       -2.58200000       1.36810000       1.02160000
O       -2.91980000       1.50470000       2.39450000
H        0.22870000      -0.47220000       3.98680000
H       -1.36850000       0.19910000       3.57040000
H       -1.16420000      -1.54970000       3.80110000
H        0.95730000       0.03140000       0.36250000
H        1.54380000       0.34730000       2.07570000
H       -1.10820000      -1.73580000       0.17280000
H       -3.49230000      -2.04900000       0.87790000
H       -3.18120000      -1.05860000       2.37470000
H       -2.73560000      -0.13030000      -0.55230000
H       -1.61570000       1.87230000       0.91080000
H       -3.30250000       1.91710000       0.39690000
H       -3.80440000       1.14370000       2.51230000
