17
Properties=species:S:1:pos:R:3 gdb_47192=T pbc="F F F"
O       -0.18710000       0.03650000      -0.71760000
C       -0.07380000       1.13990000      -0.23620000
C       -1.28580000       1.94830000       0.19610000
C       -1.79590000       2.79800000      -0.97720000
C       -0.84260000       3.80360000      -1.55290000
C        0.48980000       3.93210000      -1.46430000
C        1.54090000       3.12260000      -0.80190000
O        2.69150000       3.50790000      -0.86630000
C        1.27430000       1.80410000      -0.05530000
H       -2.06950000       1.25290000       0.50610000
H       -1.03560000       2.60140000       1.03900000
H       -2.11950000       2.12910000      -1.78830000
H       -2.70220000       3.33180000      -0.66600000
H       -1.34110000       4.55770000      -2.16140000
H        0.94690000       4.77480000      -1.97680000
H        1.40860000       2.03560000       1.01030000
H        2.06550000       1.10830000      -0.34130000
