14
Properties=species:S:1:pos:R:3 gdb_6660=T pbc="F F F"
N       -0.07720000       1.29370000      -0.15030000
C        0.04060000      -0.02490000       0.19090000
O        1.07060000      -0.52960000       0.57040000
C       -1.28840000      -0.79120000       0.13240000
O       -1.00670000      -2.15340000      -0.06180000
C       -2.15650000      -2.95490000       0.03770000
C       -1.79300000      -4.35530000      -0.19740000
N       -1.55090000      -5.46870000      -0.38080000
H        0.76570000       1.84580000      -0.15930000
H       -0.87610000       1.64680000      -0.64820000
H       -1.81620000      -0.62470000       1.08710000
H       -1.93700000      -0.40170000      -0.67060000
H       -2.62130000      -2.87370000       1.03420000
H       -2.92220000      -2.66660000      -0.70180000
