17
Properties=species:S:1:pos:R:3 gdb_36665=T pbc="F F F"
C       -0.37240000      -1.20660000       0.22120000
C       -0.20940000      -0.01680000       0.15360000
C       -0.03510000       1.40430000       0.02670000
C        0.64710000       2.18090000       1.11420000
N        1.29740000       2.00490000      -0.17610000
C        2.44760000       1.11130000      -0.22590000
C        3.72230000       1.95120000      -0.02740000
C        4.93390000       1.13950000      -0.09690000
N        5.88270000       0.48250000      -0.15460000
H       -0.51630000      -2.25670000       0.29050000
H       -0.81440000       1.90490000      -0.54310000
H        0.30920000       3.18640000       1.34820000
H        1.01770000       1.60420000       1.95990000
H        2.40740000       0.30910000       0.52490000
H        2.47160000       0.63440000      -1.21030000
H        3.76560000       2.73530000      -0.79010000
H        3.69040000       2.45460000       0.94560000
