15
Properties=species:S:1:pos:R:3 gdb_11738=T pbc="F F F"
O        0.01880000       1.41600000       0.17760000
C       -0.01270000       0.03240000      -0.12590000
C       -1.38110000      -0.54610000       0.02630000
C       -2.09870000      -1.02080000       1.23490000
C       -1.94460000      -1.95240000       0.02260000
C       -2.83250000      -1.44280000      -1.06230000
N       -3.65660000      -1.95460000      -1.85340000
O       -2.37480000      -0.12410000      -0.96250000
H       -0.56370000       1.86040000      -0.44840000
H        0.35340000      -0.16720000      -1.14400000
H        0.66660000      -0.45830000       0.57810000
H       -1.47520000      -1.29500000       2.08050000
H       -3.07030000      -0.60860000       1.48670000
H       -1.47040000      -2.92130000       0.07280000
H       -4.03830000      -1.25710000      -2.49440000
