15
Properties=species:S:1:pos:R:3 gdb_42998=T pbc="F F F"
O       -0.15280000       0.14210000      -0.79790000
C       -0.11370000       1.22320000      -0.27820000
C       -1.22460000       2.02170000       0.29980000
C       -0.97160000       2.57750000       1.71400000
C       -0.63870000       3.39700000       0.52030000
O        0.70950000       3.44070000       0.11060000
C        1.16690000       2.11970000      -0.18570000
C        2.10990000       1.61120000       0.80430000
C        2.87630000       1.17880000       1.62270000
H       -2.23530000       1.82030000      -0.02820000
H       -1.86770000       2.82780000       2.27050000
H       -0.16350000       2.15580000       2.30030000
H       -1.16830000       4.31100000       0.28160000
H        1.63790000       2.13590000      -1.17560000
H        3.56150000       0.79800000       2.33960000
