17
Properties=species:S:1:pos:R:3 gdb_105134=T pbc="F F F"
C        0.16780000       1.31450000       0.20800000
O       -0.18960000      -0.00520000      -0.17230000
C        0.58800000      -0.52570000      -1.20060000
C        1.93190000      -1.12020000      -0.83230000
C        0.77090000      -2.04550000      -1.15930000
C        0.13770000      -2.81930000      -0.13480000
C       -0.38960000      -3.49910000       0.70480000
C        0.42880000       0.09810000      -2.49140000
C        0.29150000       0.63350000      -3.55970000
H        1.20830000       1.36390000       0.55820000
H        0.04020000       2.01980000      -0.62310000
H       -0.50090000       1.59250000       1.02470000
H        2.74550000      -1.05390000      -1.54440000
H        2.20630000      -1.04520000       0.21330000
H        0.80350000      -2.51390000      -2.13790000
H       -0.86390000      -4.08800000       1.44990000
H        0.16380000       1.10010000      -4.50520000
