17
Properties=species:S:1:pos:R:3 gdb_112420=T pbc="F F F"
C       -0.28220000       1.54820000      -0.16540000
C        0.06670000       0.07800000      -0.02530000
O        1.09490000      -0.27550000      -0.97270000
C        1.90740000      -1.21880000      -0.44000000
O        2.76050000      -1.80140000      -1.02760000
O        1.60830000      -1.40690000       0.87670000
C        0.67320000      -0.39690000       1.31010000
C        1.44530000       0.63130000       2.13510000
O        2.05070000       0.02080000       3.25230000
H        0.58500000       2.18840000       0.01140000
H       -0.65160000       1.74430000      -1.17480000
H       -1.07140000       1.81780000       0.54310000
H       -0.81350000      -0.53350000      -0.26000000
H       -0.06460000      -0.89030000       1.94730000
H        2.18480000       1.13960000       1.49600000
H        0.75820000       1.39060000       2.52180000
H        2.60670000      -0.69210000       2.91590000
