19
Properties=species:S:1:pos:R:3 gdb_115470=T pbc="F F F"
O       -0.05200000       1.44940000       0.02640000
C        0.02820000       0.03350000      -0.02540000
C       -1.39550000      -0.51620000       0.03310000
C       -1.47380000      -2.06530000      -0.04780000
C       -2.63140000      -2.47860000       0.89730000
C       -2.78290000      -1.27100000       1.79580000
C       -3.59160000      -1.26150000       3.01570000
O       -4.21430000      -2.21600000       3.42910000
C       -2.11570000      -0.20900000       1.32090000
H        0.84110000       1.80560000       0.03920000
H        0.51330000      -0.30860000      -0.95360000
H        0.60980000      -0.36800000       0.82010000
H       -1.94590000      -0.04880000      -0.79740000
H       -1.60960000      -2.42500000      -1.07030000
H       -0.53270000      -2.49050000       0.32050000
H       -3.56450000      -2.66200000       0.34980000
H       -2.42430000      -3.39280000       1.46050000
H       -3.59690000      -0.29090000       3.56110000
H       -2.09650000       0.77580000       1.77490000
