20
Properties=species:S:1:pos:R:3 gdb_111333=T pbc="F F F"
C       -0.01240000       1.65040000      -0.04750000
C       -0.16000000       0.12510000      -0.01990000
C        0.63900000      -0.55310000      -1.12160000
N        2.15250000      -0.38870000      -1.10050000
C        2.66480000      -1.16440000       0.04490000
C        2.28750000      -1.90080000      -1.17910000
C        0.78920000      -2.07930000      -1.20660000
C       -0.05700000      -3.20390000      -0.80260000
O        0.11710000      -2.84510000      -2.18430000
H        1.03610000       1.94160000       0.06430000
H       -0.37050000       2.06350000      -0.99660000
H       -0.58490000       2.11710000       0.75950000
H        0.13730000      -0.26070000       0.96230000
H       -1.21440000      -0.15260000      -0.14730000
H        0.30490000      -0.18710000      -2.09880000
H        3.72080000      -0.98970000       0.22710000
H        2.06580000      -1.27410000       0.94530000
H        2.99310000      -2.38780000      -1.84330000
H        0.40030000      -4.14610000      -0.50290000
H       -1.05160000      -3.02020000      -0.39840000
