18
Properties=species:S:1:pos:R:3 gdb_22350=T pbc="F F F"
C       -0.72620000       1.28350000       0.07750000
C        0.19250000       0.07610000      -0.07450000
C        1.24460000       0.13690000      -1.20160000
C        2.33790000      -0.79970000      -0.73450000
C        2.33650000      -0.89320000       0.76880000
C        1.02020000      -0.22660000       1.18580000
O        0.69130000       0.03050000       2.31420000
N        3.07200000      -1.42810000      -1.56120000
O        4.00800000      -2.23770000      -0.89460000
H       -0.14330000       2.20530000       0.17730000
H       -1.38630000       1.39130000      -0.78780000
H       -1.33930000       1.17960000       0.97610000
H       -0.41820000      -0.82810000      -0.22860000
H        0.86460000      -0.13430000      -2.18810000
H        1.64130000       1.16000000      -1.27240000
H        2.38950000      -1.93010000       1.11780000
H        3.18630000      -0.37580000       1.22940000
H        4.45940000      -2.67280000      -1.62600000
