18
Properties=species:S:1:pos:R:3 gdb_34602=T pbc="F F F"
N        0.20050000      -0.95300000       0.77380000
C        0.08440000       0.13160000       0.38340000
C       -0.01690000       1.46780000      -0.11670000
C       -1.14760000       2.16480000       0.07150000
C       -1.37090000       3.55760000      -0.43490000
C       -0.10070000       4.28550000      -0.83550000
C        1.03550000       4.40950000       0.15080000
C        1.17400000       3.50450000      -1.04850000
C        1.18450000       1.99670000      -0.87330000
H       -1.96930000       1.69630000       0.60520000
H       -2.04900000       3.49920000      -1.30010000
H       -1.92270000       4.13220000       0.32170000
H       -0.26400000       5.13670000      -1.48890000
H        1.60550000       5.33150000       0.16820000
H        0.91150000       3.94280000       1.12330000
H        1.83070000       3.85490000      -1.83860000
H        2.10220000       1.67570000      -0.36520000
H        1.20890000       1.51320000      -1.85950000
