18
Properties=species:S:1:pos:R:3 gdb_79779=T pbc="F F F"
O        0.05750000       1.46340000       0.16030000
C       -0.00950000       0.07260000      -0.05330000
C       -1.39090000      -0.59370000      -0.07610000
C       -2.29430000      -0.11970000      -1.28640000
C       -1.55470000       0.88580000      -2.18510000
N       -0.58310000      -0.19810000      -2.58940000
C        0.28950000      -0.61620000      -1.41210000
C       -0.75580000      -1.70800000      -0.99890000
C       -1.62990000      -1.22560000      -2.16500000
H        0.98380000       1.72530000       0.16630000
H        0.59920000      -0.46300000       0.69480000
H       -1.90400000      -0.79650000       0.86310000
H       -3.36290000      -0.02880000      -1.08370000
H       -2.14960000       1.14400000      -3.06830000
H       -1.12010000       1.78300000      -1.75010000
H        1.32580000      -0.80110000      -1.70220000
H       -0.53200000      -2.72650000      -0.69150000
H       -2.11570000      -1.82550000      -2.93590000
