16
Properties=species:S:1:pos:R:3 gdb_31996=T pbc="F F F"
O        0.25880000       0.91170000      -0.90250000
C       -0.10530000       0.27800000       0.30730000
C       -1.40970000      -0.43880000       0.17700000
C       -2.16330000      -0.84810000      -0.87050000
N       -3.31520000      -1.46730000      -0.38900000
C       -3.20260000      -1.40610000       0.89710000
C       -4.18710000      -1.94230000       1.88650000
O       -5.28380000      -2.52550000       1.23100000
O       -2.07590000      -0.79260000       1.32810000
H       -0.42540000       1.55700000      -1.11190000
H        0.70570000      -0.42550000       0.53160000
H       -0.15780000       0.97920000       1.15520000
H       -1.96190000      -0.75060000      -1.92430000
H       -3.68480000      -2.67870000       2.53370000
H       -4.52080000      -1.12520000       2.54540000
H       -5.11630000      -2.44450000       0.28180000
