21
Properties=species:S:1:pos:R:3 gdb_59115=T pbc="F F F"
C       -0.23890000       1.74160000       0.42120000
C       -0.04570000       0.26580000       0.09090000
O        0.74000000      -0.39920000       1.10130000
C       -1.36090000      -0.47420000      -0.15470000
C       -1.88430000      -0.64290000      -1.62970000
O       -0.86400000      -0.63930000      -2.60350000
C       -2.35700000      -2.06860000      -1.23230000
C       -1.35180000      -2.03190000      -0.06160000
O       -0.11310000      -2.57310000      -0.50360000
H        0.72630000       2.23450000       0.56560000
H       -0.77020000       2.24910000      -0.39040000
H       -0.83170000       1.86590000       1.33640000
H        0.56610000       0.18430000      -0.81120000
H        0.26890000      -0.32500000       1.93910000
H       -2.16320000      -0.07360000       0.47750000
H       -2.64060000       0.06820000      -1.97010000
H       -0.26010000      -1.35730000      -2.36550000
H       -3.39240000      -2.08210000      -0.88200000
H       -2.20850000      -2.85670000      -1.97410000
H       -1.66030000      -2.48300000       0.89030000
H        0.55370000      -2.20430000       0.09600000
