15
Properties=species:S:1:pos:R:3 gdb_27077=T pbc="F F F"
N       -0.20190000       1.29530000       0.34770000
C       -0.14060000      -0.06480000       0.09840000
C       -1.08400000      -0.98530000      -0.25580000
O       -2.38160000      -0.67270000      -0.60060000
C       -3.35890000      -1.08170000       0.25350000
N       -4.56450000      -0.86570000      -0.03810000
C       -0.42980000      -2.26250000      -0.29100000
C        0.86040000      -2.02160000       0.04270000
O        1.04740000      -0.68000000       0.28590000
H        0.60820000       1.79770000       0.00480000
H       -1.05380000       1.69790000      -0.02230000
H       -2.95940000      -1.57620000       1.14720000
H       -5.16910000      -1.22230000       0.69900000
H       -0.87100000      -3.21230000      -0.54830000
H        1.73650000      -2.63640000       0.15080000
