18
Properties=species:S:1:pos:R:3 gdb_12512=T pbc="F F F"
C        0.00870000       1.56860000      -0.21030000
C       -0.03310000       0.07510000       0.01070000
C       -1.20180000      -0.57690000       0.11030000
C       -1.32870000      -2.06070000       0.31660000
O       -0.56890000      -2.82320000      -0.61870000
C        0.75900000      -3.06590000      -0.23300000
C        1.60870000      -1.86960000       0.08350000
C        1.27840000      -0.57160000       0.14450000
H        0.56110000       2.06910000       0.59490000
H        0.52570000       1.81640000      -1.14550000
H       -0.99480000       1.99830000      -0.25350000
H       -2.12790000      -0.01480000       0.01900000
H       -1.03830000      -2.33610000       1.34410000
H       -2.37000000      -2.36870000       0.18030000
H        0.80510000      -3.76520000       0.62430000
H        1.20990000      -3.60170000      -1.07990000
H        2.65200000      -2.13040000       0.25950000
H        2.09590000       0.12160000       0.33880000
