19
Properties=species:S:1:pos:R:3 gdb_41621=T pbc="F F F"
C        0.03960000       1.57280000      -0.20230000
C        1.54950000       1.53470000       0.16040000
C        1.39130000       0.08450000       0.69700000
C       -0.02950000       0.02650000      -0.01140000
C        0.25990000      -0.72520000      -1.30150000
C        1.44890000      -1.31430000      -1.22760000
C        2.77130000      -1.46950000      -1.93550000
O        3.39670000      -0.78830000      -0.80190000
C        2.20110000      -1.03180000       0.03240000
H       -0.55900000       2.10010000       0.54580000
H       -0.22570000       1.95840000      -1.19090000
H        2.20520000       1.56590000      -0.71180000
H        1.89820000       2.27570000       0.88220000
H        1.36940000       0.02490000       1.78660000
H       -0.88670000      -0.34590000       0.55830000
H       -0.35970000      -0.61370000      -2.18520000
H        3.15310000      -2.49440000      -2.03440000
H        2.90610000      -0.93180000      -2.87970000
H        2.41180000      -1.87360000       0.70540000
