15
Properties=species:S:1:pos:R:3 gdb_80272=T pbc="F F F"
O        0.14820000       1.21980000      -0.40220000
C        0.01340000      -0.13260000      -0.14610000
C       -0.44660000      -0.56870000       1.20980000
O       -0.68160000       0.42780000       2.16920000
C       -1.69560000       1.35540000       2.04220000
O       -1.73890000       2.25210000       2.84160000
C       -2.67860000       1.14800000       0.96950000
C       -2.56940000       0.16720000       0.06650000
C       -1.40250000      -0.71830000       0.04020000
H        0.57890000       1.63100000       0.35730000
H        0.71220000      -0.77650000      -0.67690000
H       -0.01760000      -1.44650000       1.67970000
H       -3.51820000       1.83110000       0.99430000
H       -3.34730000       0.01170000      -0.67550000
H       -1.54930000      -1.71290000      -0.36650000
