14
Properties=species:S:1:pos:R:3 gdb_133286=T pbc="F F F"
C       -0.04870000       1.41180000       0.06990000
N       -0.03610000      -0.03890000       0.06990000
C        0.52200000      -0.63690000      -0.90680000
N        1.14630000      -0.04050000      -2.01800000
N        1.74890000      -0.63910000      -3.07380000
N        1.78460000      -1.90350000      -3.11830000
C        1.21070000      -2.64450000      -2.09340000
C        0.60420000      -2.08000000      -1.03030000
F        0.06610000      -2.80070000      -0.06910000
H        0.96540000       1.84480000       0.07850000
H       -0.58080000       1.83170000      -0.79990000
H       -0.56110000       1.76640000       0.96670000
H        1.17550000       0.96580000      -2.08420000
H        1.28000000      -3.71980000      -2.19990000
