17
Properties=species:S:1:pos:R:3 gdb_10818=T pbc="F F F"
C       -0.02920000       1.45440000      -0.24890000
N        0.01430000       0.12680000       0.33240000
C       -1.23830000      -0.62530000       0.33620000
C       -1.14470000      -1.84740000       1.24830000
C        0.09720000      -2.70230000       0.96020000
O        0.10050000      -3.90350000       1.16740000
C        1.25110000      -1.93770000       0.51880000
C        1.16400000      -0.60150000       0.28460000
H        0.95220000       1.92670000      -0.16560000
H       -0.31690000       1.43570000      -1.31170000
H       -0.75420000       2.07480000       0.28770000
H       -2.04380000       0.04220000       0.65850000
H       -1.46970000      -0.94530000      -0.69480000
H       -1.07780000      -1.52290000       2.29550000
H       -2.03770000      -2.46910000       1.15440000
H        2.20790000      -2.43890000       0.44900000
H        2.05270000      -0.02440000       0.04200000
