23
Properties=species:S:1:pos:R:3 gdb_105745=T pbc="F F F"
C       -0.11390000       1.60280000       0.05650000
C       -0.04030000       0.07500000      -0.00530000
C        0.74640000      -0.49190000      -1.20990000
C        2.25260000      -0.10700000      -1.20790000
C        2.93750000      -1.14860000      -2.11830000
C        2.02250000      -2.40860000      -2.08710000
C        0.83890000      -2.04320000      -1.16690000
C        0.12180000      -0.07260000      -2.46880000
C       -0.39400000       0.26340000      -3.50280000
H        0.88040000       2.04980000       0.15640000
H       -0.57570000       2.00970000      -0.84780000
H       -0.70970000       1.92560000       0.91580000
H        0.43240000      -0.31020000       0.90710000
H       -1.05560000      -0.33840000      -0.02960000
H        2.42780000       0.92110000      -1.53170000
H        2.61890000      -0.19710000      -0.17780000
H        3.01480000      -0.76380000      -3.13860000
H        3.95560000      -1.36370000      -1.78290000
H        1.66370000      -2.64040000      -3.09330000
H        2.54890000      -3.29630000      -1.72610000
H        1.05310000      -2.33670000      -0.13210000
H       -0.09870000      -2.52310000      -1.45760000
H       -0.84890000       0.56120000      -4.41490000
