19
Properties=species:S:1:pos:R:3 gdb_13792=T pbc="F F F"
C        0.62280000       1.74710000       0.18800000
C       -0.13000000       0.42180000       0.02180000
C        0.31480000      -0.31370000      -1.22140000
N        1.54820000      -1.08510000      -1.13380000
C        0.28840000      -1.81480000      -1.37120000
C       -0.21200000      -2.72420000      -0.28250000
C       -1.16450000      -3.81380000      -0.74400000
O        0.09940000      -2.59250000       0.87910000
H        1.69910000       1.56780000       0.27160000
H        0.45700000       2.41540000      -0.66510000
H        0.29610000       2.27280000       1.09000000
H        0.03990000      -0.22060000       0.88820000
H       -1.20970000       0.60910000      -0.04390000
H        0.13220000       0.22400000      -2.15380000
H        2.07800000      -1.03560000      -1.99990000
H        0.09720000      -2.17670000      -2.38000000
H       -0.65230000      -4.49590000      -1.43310000
H       -1.53280000      -4.37290000       0.11660000
H       -2.00720000      -3.38060000      -1.29530000
