13
Properties=species:S:1:pos:R:3 gdb_5732=T pbc="F F F"
O       -0.21480000      -0.08540000       0.00690000
C       -0.09620000       1.10400000       0.09970000
O       -1.14000000       2.02260000      -0.08260000
C       -0.69630000       3.32180000       0.15890000
C        0.61000000       3.24970000       0.43300000
C        1.98820000       3.67360000       0.91350000
C        2.33400000       2.13130000       0.89930000
N        0.97740000       1.91660000       0.36020000
H       -1.43100000       4.10380000       0.09550000
H        2.56720000       4.27090000       0.20690000
H        2.02050000       4.14460000       1.89710000
H        3.13180000       1.82440000       0.22040000
H        2.48720000       1.68400000       1.88410000
