25
Properties=species:S:1:pos:R:3 gdb_110353=T pbc="F F F"
C       -0.44220000       1.27020000       0.09020000
C       -0.09170000      -0.19170000       0.39360000
C       -1.31260000      -1.09170000       0.37810000
C       -1.95920000      -1.67510000      -0.85240000
C       -1.31710000      -2.58630000       0.20160000
C       -0.27220000      -3.07020000      -0.82040000
C       -0.31020000      -4.57240000      -1.08240000
C       -0.92930000      -2.12930000      -1.90310000
C       -1.54220000      -2.79210000      -3.13240000
H        0.44600000       1.90920000       0.12090000
H       -0.89430000       1.36740000      -0.90250000
H       -1.16070000       1.66350000       0.81830000
H        0.65580000      -0.54140000      -0.32560000
H        0.38610000      -0.25750000       1.38000000
H       -2.06390000      -0.77910000       1.10410000
H       -3.01200000      -1.52260000      -1.06740000
H       -1.80130000      -3.23810000       0.92190000
H        0.75850000      -2.78990000      -0.57100000
H       -1.32610000      -4.93050000      -1.27600000
H        0.31520000      -4.85000000      -1.93720000
H        0.06540000      -5.11520000      -0.20760000
H       -0.25910000      -1.32980000      -2.24300000
H       -2.27120000      -3.56340000      -2.86520000
H       -2.06640000      -2.04490000      -3.73880000
H       -0.77770000      -3.25430000      -3.76540000
