17
Properties=species:S:1:pos:R:3 gdb_54998=T pbc="F F F"
C        0.81090000       0.96590000      -0.37820000
C        0.36030000      -0.48490000      -0.34820000
N       -0.12400000      -0.83130000       0.95120000
H        0.63810000      -0.84290000       1.62080000
H       -0.55840000      -1.74850000       0.94250000
N       -0.70570000      -0.80650000      -1.30890000
C       -0.32310000      -0.67690000      -2.71060000
C       -0.24550000      -2.00320000      -2.03300000
C        1.13430000      -2.33280000      -1.54310000
O        1.52630000      -1.32060000      -0.72570000
O        1.80820000      -3.28950000      -1.79620000
H        1.27050000       1.22240000      -1.33380000
H       -0.05130000       1.61030000      -0.19870000
H        1.54810000       1.13820000       0.41000000
H       -1.15150000      -0.47860000      -3.38250000
H        0.61130000      -0.18670000      -2.96800000
H       -0.93790000      -2.80820000      -2.24550000
