20
Properties=species:S:1:pos:R:3 gdb_120468=T pbc="F F F"
C        0.60630000       0.77810000      -0.50670000
O        1.00140000       0.42240000       0.79940000
C        0.00470000      -0.24660000       1.54750000
C       -0.13330000      -1.72300000       1.18840000
C        1.04550000      -2.65270000       1.59980000
N        0.11450000      -3.32760000       2.50840000
C        0.26930000      -4.43440000       3.41460000
C       -0.97560000      -2.55950000       2.18690000
O       -2.11620000      -2.56610000       2.57460000
H       -0.29830000       1.40570000      -0.49850000
H        1.42800000       1.34910000      -0.94580000
H        0.41140000      -0.09610000      -1.14580000
H        0.30590000      -0.15310000       2.59710000
H       -0.97120000       0.25050000       1.43640000
H       -0.45830000      -1.85590000       0.15340000
H        1.43830000      -3.29720000       0.80550000
H        1.87780000      -2.14720000       2.10220000
H        1.01440000      -4.21900000       4.19030000
H       -0.69750000      -4.60790000       3.89330000
H        0.57210000      -5.34810000       2.88820000
