17
Properties=species:S:1:pos:R:3 gdb_101988=T pbc="F F F"
C       -0.05540000       1.57270000       0.00080000
C        0.03460000       0.04530000       0.00340000
C        0.71010000      -0.52660000      -1.27890000
C        2.19190000      -0.12740000      -1.28700000
O        2.65420000       0.73240000      -1.98530000
C        0.60260000      -1.97500000      -1.34720000
C        0.54920000      -3.18380000      -1.39340000
C        0.48050000      -4.54150000      -1.44480000
C        0.42040000      -5.74660000      -1.49090000
H        0.93070000       2.03950000      -0.08020000
H       -0.65920000       1.93060000      -0.83950000
H       -0.52160000       1.92800000       0.92410000
H        0.59210000      -0.30880000       0.87880000
H       -0.96400000      -0.39620000       0.07630000
H        0.25040000      -0.06740000      -2.16240000
H        2.81170000      -0.69360000      -0.55680000
H        0.36750000      -6.80630000      -1.53160000
