19
Properties=species:S:1:pos:R:3 gdb_71478=T pbc="F F F"
C        0.10210000       1.54550000       0.21440000
C        0.05540000       0.04770000       0.07790000
C       -1.29250000      -0.73860000       0.17190000
C       -0.46130000      -1.91120000       0.68070000
C        0.65560000      -1.01840000       1.09250000
C        0.84740000      -1.90030000      -0.15290000
C        0.80140000      -0.68560000      -1.07580000
C        1.70620000      -3.08760000      -0.20340000
O        1.70630000      -3.97380000       0.62280000
H        1.13380000       1.91300000       0.23280000
H       -0.40750000       2.02570000      -0.62950000
H       -0.39070000       1.87860000       1.13410000
H       -1.93280000      -0.33890000       0.96370000
H       -1.87220000      -0.85590000      -0.75060000
H       -0.77200000      -2.83870000       1.14170000
H        1.27330000      -0.97110000       1.97790000
H        0.27930000      -0.76670000      -2.03650000
H        1.80160000      -0.27040000      -1.23520000
H        2.39820000      -3.12040000      -1.07670000
