13
Properties=species:S:1:pos:R:3 gdb_837=T pbc="F F F"
C        0.04020000       1.47360000       0.02250000
C       -0.07320000      -0.00870000       0.01070000
C       -1.11190000      -0.86000000      -0.22090000
C       -0.57970000      -2.18580000      -0.08530000
O       -1.23270000      -3.37150000      -0.22530000
C        0.73850000      -2.04730000       0.21790000
O        1.05380000      -0.71410000       0.27760000
H        0.76620000       1.82610000      -0.71890000
H       -0.92820000       1.92370000      -0.20640000
H        0.36760000       1.84300000       1.00100000
H       -2.12840000      -0.58320000      -0.45830000
H       -2.15370000      -3.19200000      -0.43350000
H        1.53470000      -2.74440000       0.40840000
