18
Properties=species:S:1:pos:R:3 gdb_15247=T pbc="F F F"
C       -0.04920000       1.55960000       0.19560000
C        0.06020000       0.06390000      -0.03030000
C        0.47760000      -0.56260000      -1.32170000
C        0.87890000       0.21530000      -2.55760000
O        1.73850000      -0.52910000      -3.40450000
C        1.39950000      -0.68010000      -0.09150000
C        2.69340000       0.03050000      -0.02400000
O        3.69260000      -0.44300000       0.46570000
H        0.68870000       2.13850000      -0.36270000
H       -1.04020000       1.91240000      -0.10890000
H        0.07720000       1.79860000       1.25640000
H       -0.69430000      -0.49650000       0.51610000
H       -0.00770000      -1.50210000      -1.57300000
H       -0.01490000       0.42020000      -3.15710000
H        1.31700000       1.18900000      -2.30010000
H        2.52250000      -0.76580000      -2.89720000
H        1.44190000      -1.65410000       0.38470000
H        2.71500000       1.05300000      -0.46060000
