19
Properties=species:S:1:pos:R:3 gdb_68150=T pbc="F F F"
C       -0.10320000       1.47770000      -0.08970000
C        0.03550000      -0.01560000      -0.01710000
C        0.75820000      -0.87200000      -1.08780000
C       -0.28090000      -1.88530000      -0.53050000
C        0.22880000      -2.16980000       0.89800000
C        0.46590000      -0.68460000       1.31210000
O       -1.19500000      -0.76660000      -0.33070000
C       -0.81460000      -2.99070000      -1.38810000
O       -0.40810000      -4.12460000      -1.34650000
H        0.86100000       1.95830000       0.10620000
H       -0.45510000       1.79190000      -1.07600000
H       -0.81750000       1.83130000       0.66100000
H        0.51310000      -0.54800000      -2.10030000
H        1.82130000      -1.09920000      -0.97870000
H       -0.53770000      -2.66360000       1.49760000
H        1.12900000      -2.78690000       0.90590000
H        1.50310000      -0.46400000       1.57870000
H       -0.17990000      -0.36800000       2.13410000
H       -1.60970000      -2.67110000      -2.09730000
