17
Properties=species:S:1:pos:R:3 gdb_64620=T pbc="F F F"
N       -0.03720000       1.51490000      -0.01040000
C       -0.01510000       0.04300000      -0.00680000
C        0.62800000      -0.48320000       1.27620000
C       -0.18600000      -1.29620000       1.94750000
C       -1.51420000      -1.43230000       1.28570000
C       -2.31140000      -0.14430000       1.19910000
C       -1.43300000      -0.55930000       0.04970000
C        0.70680000      -0.48860000      -1.18950000
N        1.27890000      -0.86170000      -2.12330000
H        0.91480000       1.87110000      -0.03900000
H       -0.49060000       1.84670000      -0.85810000
H        1.62030000      -0.16760000       1.57460000
H        0.05360000      -1.77260000       2.89140000
H       -2.03410000      -2.38320000       1.28520000
H       -3.38170000      -0.22610000       1.04150000
H       -1.99480000       0.69310000       1.80910000
H       -1.89120000      -0.86160000      -0.88330000
