19
Properties=species:S:1:pos:R:3 gdb_61800=T pbc="F F F"
C        0.04460000       1.61290000       0.06910000
C        0.00970000       0.09030000       0.00890000
O       -1.36500000      -0.35520000       0.00680000
C       -1.89080000      -0.82190000       1.15540000
O       -3.02590000      -1.17750000       1.25030000
C        0.69360000      -0.50710000      -1.23940000
C        0.76450000      -2.03900000      -1.17630000
C       -0.03030000      -0.06160000      -2.50520000
O        0.35840000       0.81570000      -3.23250000
H        1.07950000       1.96710000       0.07940000
H       -0.45860000       2.05360000      -0.79480000
H       -0.45060000       1.96810000       0.97720000
H        0.50710000      -0.32630000       0.89630000
H       -1.15570000      -0.84310000       1.98440000
H        1.69990000      -0.07800000      -1.28750000
H        1.29560000      -2.44310000      -2.04290000
H        1.29600000      -2.36550000      -0.27680000
H       -0.23710000      -2.47850000      -1.15670000
H       -0.97000000      -0.61560000      -2.71970000
