19
Properties=species:S:1:pos:R:3 gdb_83930=T pbc="F F F"
O       -0.42190000       1.49190000      -0.00820000
C       -0.20670000       0.11300000       0.03180000
C       -0.45840000      -0.72250000       1.24490000
C       -1.24120000      -0.15240000       2.41960000
C       -2.50560000       0.51020000       1.82090000
C       -2.76090000      -0.19960000       0.47090000
C       -1.42660000      -0.78800000       0.03540000
C       -1.41270000      -1.96690000      -0.85460000
O       -2.39670000      -2.53240000      -1.26760000
H        0.27630000       1.91720000       0.50110000
H        0.60960000      -0.22850000      -0.60800000
H        0.22900000      -1.54200000       1.43190000
H       -1.50920000      -0.97920000       3.08660000
H       -0.64870000       0.55240000       3.01400000
H       -3.36290000       0.43050000       2.49480000
H       -2.31900000       1.57040000       1.64720000
H       -3.46730000      -1.02920000       0.57130000
H       -3.17390000       0.48290000      -0.27700000
H       -0.39130000      -2.32540000      -1.12680000
