19
Properties=species:S:1:pos:R:3 gdb_117140=T pbc="F F F"
C       -0.17050000       1.48620000      -0.02800000
C       -0.03830000      -0.02400000      -0.02790000
O       -1.37060000      -0.57550000      -0.00250000
C       -1.43220000      -1.92000000       0.00060000
O       -0.46830000      -2.65150000      -0.01620000
N       -2.75300000      -2.34290000       0.02570000
C       -3.86670000      -1.39470000       0.04490000
C       -2.99690000      -3.71320000       0.03200000
N       -4.17760000      -4.18350000       0.05450000
H        0.82330000       1.94290000      -0.04730000
H       -0.72500000       1.83080000      -0.90540000
H       -0.69210000       1.83390000       0.86810000
H        0.47910000      -0.39160000      -0.91920000
H        0.51150000      -0.38870000       0.84490000
H       -3.84730000      -0.76010000      -0.84400000
H       -4.78350000      -1.98150000       0.06280000
H       -3.81440000      -0.75750000       0.93060000
H       -2.06610000      -4.28080000       0.01560000
H       -4.14570000      -5.20050000       0.05530000
