15
Properties=species:S:1:pos:R:3 gdb_25195=T pbc="F F F"
N       -0.07790000       1.26910000      -0.48990000
C        0.01760000       0.09770000      -0.00680000
N       -1.18780000      -0.47410000       0.41710000
C       -1.49460000      -1.68170000       0.94580000
C       -0.65270000      -2.66020000       1.36370000
C        0.77610000      -2.60330000       1.37510000
N        1.61990000      -1.76870000       0.86210000
C        1.34060000      -0.65690000       0.08060000
N        2.26600000      -0.11320000      -0.61690000
H        0.84970000       1.55790000      -0.80600000
H       -1.95710000       0.15000000       0.21330000
H       -2.56460000      -1.83010000       1.05080000
H       -1.10810000      -3.54440000       1.79300000
H        1.24780000      -3.42360000       1.92320000
H        3.12720000      -0.64530000      -0.47600000
