11
Properties=species:S:1:pos:R:3 gdb_23696=T pbc="F F F"
F        0.05910000       0.05360000       0.00320000
C       -0.06570000       1.36600000       0.01130000
N       -1.23040000       1.89860000       0.02970000
C       -1.22810000       3.27560000       0.03640000
C       -0.11430000       4.05230000       0.02530000
C        1.20210000       3.44770000       0.00450000
O        2.28910000       3.98220000      -0.00750000
N        1.11020000       2.02300000      -0.00130000
H       -2.21530000       3.72700000       0.05200000
H       -0.16810000       5.13250000       0.03140000
H        1.98240000       1.50950000      -0.01560000
