23
Properties=species:S:1:pos:R:3 gdb_74267=T pbc="F F F"
C       -0.07450000       1.50850000       0.08850000
C       -0.01140000       0.01500000       0.01480000
C        0.10320000      -0.74540000      -1.07960000
C        0.08180000      -2.23950000      -0.79060000
C       -1.24200000      -2.85560000      -1.28850000
C        1.26470000      -2.98270000      -1.43700000
C        0.11550000      -2.26490000       0.74810000
C        1.25700000      -1.61410000       1.48430000
C       -0.02520000      -0.83870000       1.24530000
H        0.75380000       1.91280000       0.68410000
H       -0.03740000       1.96410000      -0.90480000
H       -0.99910000       1.83990000       0.57840000
H        0.20240000      -0.36460000      -2.09190000
H       -1.34070000      -2.74970000      -2.37430000
H       -1.28840000      -3.92520000      -1.05050000
H       -2.10010000      -2.36260000      -0.82200000
H        2.22430000      -2.58590000      -1.09470000
H        1.23360000      -4.05070000      -1.19430000
H        1.23370000      -2.89000000      -2.52850000
H       -0.40070000      -3.07760000       1.24820000
H        1.45020000      -1.96920000       2.49180000
H        2.14170000      -1.30340000       0.93800000
H       -0.64440000      -0.56530000       2.09370000
