13
Properties=species:S:1:pos:R:3 gdb_131009=T pbc="F F F"
O       -0.03720000      -0.04060000       0.00070000
C        0.01650000       1.15250000       0.01000000
N        1.20290000       1.90810000       0.00180000
C        1.26790000       3.28360000       0.01250000
C        2.58880000       3.61360000      -0.00080000
C        3.27640000       2.35630000      -0.01990000
N        2.42870000       1.33150000      -0.01800000
C        4.68010000       2.16200000      -0.03860000
C        5.87690000       2.04330000      -0.05420000
H       -0.86130000       1.82430000       0.02640000
H        0.37290000       3.88520000       0.02840000
H        3.02820000       4.59700000       0.00210000
H        6.93190000       1.92120000      -0.06800000
