21
Properties=species:S:1:pos:R:3 gdb_40259=T pbc="F F F"
C        0.04960000       1.53770000      -0.17230000
C        1.34000000       0.74340000      -0.09520000
C        0.02250000       0.04720000       0.06570000
C       -0.35840000      -0.49690000       1.43140000
C       -1.83740000      -0.63420000       1.71670000
C       -2.78100000      -1.10260000       0.89970000
C       -2.59820000      -1.59160000      -0.51720000
C       -1.68680000      -0.73920000      -1.40340000
O       -0.31840000      -0.76610000      -1.02500000
H       -0.20580000       2.20100000       0.64710000
H       -0.25230000       1.89330000      -1.15090000
H        1.86710000       0.56440000      -1.02500000
H        1.97530000       0.86210000       0.77590000
H        0.12370000      -1.47950000       1.54830000
H        0.09180000       0.14900000       2.19260000
H       -2.14000000      -0.35650000       2.72430000
H       -3.79300000      -1.17500000       1.29270000
H       -2.20500000      -2.61880000      -0.50890000
H       -3.57700000      -1.64760000      -1.00900000
H       -1.71070000      -1.13270000      -2.42530000
H       -2.05310000       0.29710000      -1.42780000
