14
Properties=species:S:1:pos:R:3 gdb_2314=T pbc="F F F"
C        0.05750000       1.52910000      -0.18670000
C       -0.03240000       0.05200000       0.09980000
O        1.17900000      -0.71420000       0.04840000
C        0.50100000      -0.61960000       1.29640000
C        1.21660000       0.11510000       2.42000000
C        2.16340000      -0.74970000       3.12500000
N        2.89940000      -1.44120000       3.68560000
H        0.91070000       1.99720000       0.30830000
H        0.16650000       1.69230000      -1.26350000
H       -0.85800000       2.03580000       0.13690000
H       -0.87560000      -0.44520000      -0.38420000
H        0.02000000      -1.54460000       1.61750000
H        1.75700000       0.98000000       2.02770000
H        0.48090000       0.48490000       3.14470000
