18
Properties=species:S:1:pos:R:3 gdb_99551=T pbc="F F F"
C       -0.21980000       1.46910000       0.02950000
N        0.07950000       0.03780000      -0.03110000
C        0.75840000      -0.49120000       1.14590000
C       -0.10770000      -0.49920000       2.34350000
N       -0.85040000      -0.48970000       3.23000000
C        1.30820000      -1.92700000       0.82200000
N        2.16050000      -1.94920000      -0.36350000
C        2.01180000      -2.47540000       1.97710000
C        2.61170000      -2.88700000       2.93260000
H        0.71800000       2.03250000       0.07280000
H       -0.74400000       1.75970000      -0.88450000
H       -0.83580000       1.75910000       0.89410000
H       -0.78000000      -0.48320000      -0.18020000
H        1.62230000       0.15020000       1.35610000
H        0.42920000      -2.55510000       0.61500000
H        1.73300000      -1.34390000      -1.06120000
H        3.06820000      -1.55310000      -0.13620000
H        3.12570000      -3.26790000       3.78050000
