13
Properties=species:S:1:pos:R:3 gdb_25373=T pbc="F F F"
O       -0.18160000       0.05850000      -0.00090000
C        0.00530000       1.24960000       0.00710000
C        1.31720000       1.90260000      -0.00190000
N        2.51640000       1.33290000      -0.02000000
C        3.40840000       2.34850000      -0.02130000
C        2.76170000       3.58360000      -0.00370000
N        1.42580000       3.26830000       0.00850000
C        3.24690000       4.90320000       0.00210000
C        3.66560000       6.03270000       0.00690000
H       -0.84380000       1.97390000       0.02300000
H        4.47450000       2.17960000      -0.03460000
H        0.67080000       3.93610000       0.02260000
H        4.04220000       7.02580000       0.01110000
