18
Properties=species:S:1:pos:R:3 gdb_32569=T pbc="F F F"
C        0.01870000       1.58010000      -0.01180000
C       -0.00010000       0.05110000       0.05050000
N        0.66060000      -0.48090000       1.23230000
C        2.02480000      -0.68220000       1.27110000
O        2.83800000      -0.50900000       0.39990000
O        2.31120000      -1.13920000       2.53840000
C        1.12860000      -1.19680000       3.24770000
C        0.10390000      -0.79830000       2.48080000
C       -1.34940000      -0.70090000       2.78300000
H        1.04960000       1.94330000      -0.01850000
H       -0.47420000       1.92570000      -0.92570000
H       -0.50010000       2.02230000       0.84460000
H       -1.02540000      -0.32940000       0.03190000
H        0.52550000      -0.36330000      -0.81410000
H        1.18540000      -1.53970000       4.26560000
H       -1.52940000      -0.98960000       3.82100000
H       -1.72980000       0.31760000       2.64490000
H       -1.94410000      -1.36320000       2.14280000
