23
Properties=species:S:1:pos:R:3 gdb_107013=T pbc="F F F"
C        0.16630000       1.49470000      -0.25510000
C       -0.08580000       0.01300000       0.05860000
C        0.65060000      -0.47730000       1.27690000
C        2.07260000      -0.96540000       1.22920000
C        0.99770000      -1.92160000       1.67360000
C        0.61500000      -1.64540000       3.11730000
O        1.67480000      -1.86120000       4.02930000
C        0.25120000      -0.15720000       2.73230000
C        0.94420000       0.97310000       3.48370000
H        1.23250000       1.68630000      -0.41320000
H       -0.37110000       1.80370000      -1.15740000
H       -0.16810000       2.13740000       0.56610000
H       -1.16380000      -0.15090000       0.19390000
H        0.20990000      -0.59650000      -0.80520000
H        2.45690000      -1.15110000       0.23060000
H        2.82310000      -0.62620000       1.93570000
H        0.79510000      -2.84270000       1.13970000
H       -0.27850000      -2.20590000       3.42220000
H        1.36150000      -1.63850000       4.91180000
H       -0.83550000      -0.02580000       2.79480000
H        2.03070000       0.85670000       3.48140000
H        0.70590000       1.94580000       3.04090000
H        0.61960000       1.00300000       4.53100000
