16
Properties=species:S:1:pos:R:3 gdb_20877=T pbc="F F F"
C       -0.01130000       1.55500000       0.05500000
C        0.00410000       0.02560000       0.02690000
C       -1.41320000      -0.57450000      -0.05070000
C       -1.40710000      -2.06600000      -0.05160000
N       -1.60220000      -2.81900000      -1.13130000
N       -1.47210000      -4.03740000      -0.62150000
N       -1.21670000      -4.07220000       0.67700000
N       -1.17060000      -2.82260000       1.05620000
H        1.00420000       1.95860000       0.10850000
H       -0.48620000       1.96440000      -0.84350000
H       -0.56530000       1.93000000       0.92270000
H        0.58720000      -0.32740000      -0.83210000
H        0.50260000      -0.36300000       0.92200000
H       -2.00000000      -0.22890000       0.80770000
H       -1.91880000      -0.22780000      -0.95710000
H       -1.57040000      -4.87590000      -1.17400000
