13
Properties=species:S:1:pos:R:3 gdb_131984=T pbc="F F F"
N       -0.09790000       1.35770000       0.15290000
C        0.06350000      -0.01440000       0.04720000
N       -1.00620000      -0.82390000       0.02050000
N       -0.49890000      -2.06750000      -0.00430000
C        0.84830000      -2.05620000      -0.00770000
C        1.27380000      -0.74480000       0.02780000
N        1.58290000      -3.28280000      -0.04050000
O        0.92110000      -4.32110000      -0.05960000
O        2.80430000      -3.21060000      -0.04790000
H        0.60040000       1.89920000      -0.33560000
H       -1.03440000       1.65780000      -0.08210000
H       -1.08860000      -2.88330000      -0.02600000
H        2.29030000      -0.39230000       0.04650000
