21
Properties=species:S:1:pos:R:3 gdb_120192=T pbc="F F F"
C       -0.00160000       1.59840000       0.04000000
C       -0.02340000       0.07010000       0.12630000
C       -1.40850000      -0.52600000      -0.15960000
C       -1.42230000      -2.04370000      -0.10260000
C       -1.47780000      -2.75620000       1.28010000
O       -2.88120000      -2.32040000       1.44350000
C       -2.78150000      -2.78730000       0.04000000
C       -2.05160000      -4.03360000       0.58440000
O       -1.29610000      -4.78170000      -0.32470000
H        0.99550000       1.99750000       0.25120000
H       -0.29340000       1.94200000      -0.95880000
H       -0.69890000       2.04420000       0.75790000
H        0.70680000      -0.34790000      -0.57950000
H        0.30710000      -0.24410000       1.12510000
H       -2.13950000      -0.13430000       0.55530000
H       -1.73740000      -0.20560000      -1.15810000
H       -0.73210000      -2.50230000      -0.81560000
H       -0.82200000      -2.66320000       2.14740000
H       -3.68000000      -2.72540000      -0.57530000
H       -2.67120000      -4.64230000       1.25130000
H       -0.83230000      -5.47060000       0.16100000
