13
Properties=species:S:1:pos:R:3 gdb_27725=T pbc="F F F"
O        0.06100000       1.26470000       0.14260000
C        0.07690000      -0.06830000       0.02160000
N        0.14380000      -0.74610000      -1.10500000
C        0.13130000      -2.05760000      -0.71400000
O        0.18780000      -3.05550000      -1.61050000
C        0.05640000      -2.19260000       0.65720000
N        0.02220000      -0.85170000       1.11000000
C        0.01680000      -3.29910000       1.51090000
C       -0.01860000      -4.23880000       2.26750000
H        0.10800000       1.62470000      -0.75200000
H        0.23310000      -2.64330000      -2.48170000
H       -0.03300000      -0.55050000       2.06780000
H       -0.04870000      -5.07650000       2.91830000
