20
Properties=species:S:1:pos:R:3 gdb_13988=T pbc="F F F"
O       -0.10160000       1.47940000      -0.07600000
C       -0.01250000       0.06530000      -0.16970000
C       -1.38210000      -0.51410000       0.17620000
C       -1.40380000      -2.01690000       0.13910000
C       -1.57950000      -2.80400000      -1.13470000
C       -2.57940000      -2.98770000      -0.02480000
C       -2.00030000      -3.91480000       1.04870000
C       -0.79240000      -2.93500000       1.21390000
H        0.75920000       1.84990000      -0.29110000
H        0.27570000      -0.25340000      -1.18410000
H        0.74570000      -0.33290000       0.52430000
H       -1.66710000      -0.15160000       1.17220000
H       -2.11790000      -0.10820000      -0.52850000
H       -1.93290000      -2.23000000      -1.98620000
H       -0.89400000      -3.60880000      -1.39510000
H       -3.63040000      -2.76320000      -0.16720000
H       -2.61330000      -3.96850000       1.95120000
H       -1.76930000      -4.93560000       0.72560000
H        0.20470000      -3.33490000       1.00000000
H       -0.77270000      -2.46970000       2.20320000
