21
Properties=species:S:1:pos:R:3 gdb_105683=T pbc="F F F"
C       -1.52090000      -0.24630000      -0.15540000
C       -0.01010000      -0.21500000       0.10000000
C        0.80100000      -0.62490000      -1.11510000
C        2.18500000      -1.20390000      -0.95460000
C        1.02890000      -2.07510000      -1.41110000
O        0.57830000       0.15170000      -2.26920000
C        1.11500000       1.45400000      -2.22860000
C        1.05480000       2.02710000      -3.63410000
O        1.31180000       3.17090000      -3.89970000
H       -1.78810000       0.40710000      -0.99060000
H       -1.85540000      -1.25760000      -0.40860000
H       -2.07600000       0.08300000       0.72780000
H        0.29280000       0.78920000       0.42450000
H        0.24770000      -0.88650000       0.92670000
H        2.92610000      -0.94190000      -1.70170000
H        2.58000000      -1.34120000       0.04620000
H        0.62700000      -2.81060000      -0.72270000
H        1.01270000      -2.36770000      -2.45430000
H        0.56560000       2.12370000      -1.55070000
H        2.16720000       1.44970000      -1.90040000
H        0.75800000       1.28230000      -4.40540000
