21
Properties=species:S:1:pos:R:3 gdb_66314=T pbc="F F F"
C       -0.10240000       1.55560000       0.28760000
C       -0.04660000       0.05880000       0.05210000
C       -1.32620000      -0.54640000      -0.47060000
O       -1.62340000       0.01560000      -1.73930000
C       -2.83690000      -0.43010000      -2.28060000
C       -3.04740000       0.26510000      -3.61460000
O       -3.99290000       0.06560000      -4.32940000
C        1.24880000      -0.55710000      -0.41870000
C        0.76810000      -0.79810000       0.99190000
H        0.85920000       1.93400000       0.64690000
H       -0.35320000       2.08330000      -0.63720000
H       -0.86230000       1.80950000       1.03650000
H       -1.22800000      -1.64100000      -0.55800000
H       -2.15880000      -0.34690000       0.22630000
H       -2.84580000      -1.52150000      -2.44510000
H       -3.69520000      -0.20080000      -1.62490000
H       -2.23930000       0.98500000      -3.87190000
H        1.19840000      -1.37950000      -1.12410000
H        2.09900000       0.10020000      -0.56460000
H        1.28610000      -0.29900000       1.80370000
H        0.39950000      -1.78690000       1.24550000
