16
Properties=species:S:1:pos:R:3 gdb_126929=T pbc="F F F"
C       -0.09350000       1.57580000       0.01210000
C        0.03560000       0.05610000       0.00320000
N       -1.27940000      -0.56400000       0.01080000
C       -1.51840000      -1.88830000       0.00680000
C       -0.52160000      -2.88420000      -0.00500000
N       -0.86090000      -4.15460000      -0.00770000
N       -2.15550000      -4.49210000       0.00070000
N       -3.08620000      -3.56210000       0.01140000
N       -2.80680000      -2.27500000       0.01470000
H        0.89640000       2.03760000       0.00640000
H       -0.63750000       1.92820000      -0.86990000
H       -0.62310000       1.91900000       0.90640000
H        0.59510000      -0.26520000      -0.88600000
H        0.60940000      -0.27430000       0.87990000
H       -2.10220000       0.02170000       0.01900000
H        0.54050000      -2.65810000      -0.01210000
