17
Properties=species:S:1:pos:R:3 gdb_20003=T pbc="F F F"
O       -0.05050000       0.00350000      -0.36270000
C        0.02450000       1.13340000       0.05740000
C        1.27210000       1.93400000       0.05120000
C        1.16340000       3.44420000      -0.15930000
C        1.55460000       2.92260000       1.17810000
N        0.59760000       3.02760000       2.24200000
C        1.00480000       2.49910000       3.54170000
C        0.92170000       3.96810000       3.31180000
H       -0.85900000       1.65740000       0.47830000
H        2.12480000       1.42170000      -0.38020000
H        1.90890000       3.91490000      -0.78920000
H        0.16040000       3.84780000      -0.24710000
H        2.60890000       3.00430000       1.45870000
H        0.23170000       1.98200000       4.10200000
H        1.99840000       2.06250000       3.62420000
H        1.86000000       4.51550000       3.23960000
H        0.08710000       4.54350000       3.70130000
