17
Properties=species:S:1:pos:R:3 gdb_73232=T pbc="F F F"
C       -0.19070000       1.47040000       0.03820000
C        0.06690000      -0.01300000       0.02490000
O       -1.13090000      -0.82140000       0.24060000
C       -0.52250000      -1.51560000       1.35720000
C        0.80790000      -0.76540000       1.15060000
O        1.87160000      -1.51570000       0.58190000
C        1.64800000      -1.69590000      -0.80980000
C        0.74200000      -0.54590000      -1.25070000
O        0.57380000      -0.14360000      -2.36980000
H        0.75360000       2.02400000       0.01040000
H       -0.77120000       1.74770000      -0.84640000
H       -0.74510000       1.76040000       0.93460000
H       -1.04760000      -1.30080000       2.29500000
H       -0.46970000      -2.59920000       1.20550000
H        1.20610000      -0.21000000       2.00010000
H        2.60640000      -1.67250000      -1.33500000
H        1.15760000      -2.65700000      -1.03000000
