13
Properties=species:S:1:pos:R:3 gdb_130899=T pbc="F F F"
O       -0.05340000       0.01550000      -0.00080000
C        0.02270000       1.22000000       0.00750000
C        1.28000000       1.99030000      -0.00070000
N        2.47810000       1.40220000      -0.01880000
N        3.34660000       2.41600000      -0.02060000
C        2.76720000       3.63970000      -0.00470000
C        1.40030000       3.41690000       0.00870000
C        0.36920000       4.38180000       0.02760000
C       -0.51520000       5.19870000       0.04390000
H       -0.88270000       1.86280000       0.02250000
H        4.33260000       2.20820000      -0.03330000
H        3.34040000       4.55230000      -0.00400000
H       -1.29610000       5.91820000       0.05830000
