15
Properties=species:S:1:pos:R:3 gdb_33642=T pbc="F F F"
C       -0.04930000      -1.21890000       0.02530000
C       -0.03070000      -0.01540000       0.00150000
C        0.00280000       1.39910000      -0.02440000
C       -0.63240000       2.48170000       0.79960000
O        0.55010000       3.19870000       1.02300000
C        1.22610000       2.38330000      -0.02940000
C        1.10150000       3.18770000      -1.29390000
C       -0.19480000       3.21020000      -1.63710000
C       -0.97500000       2.34570000      -0.72050000
H       -0.06660000      -2.28010000       0.05070000
H       -1.38590000       2.47710000       1.57760000
H        2.20120000       2.04530000       0.31340000
H        1.89930000       3.78540000      -1.71350000
H       -0.64710000       3.82350000      -2.40630000
H       -1.96770000       1.98200000      -0.95420000
