14
Properties=species:S:1:pos:R:3 gdb_132244=T pbc="F F F"
F        0.00120000       0.01940000       0.00340000
C       -0.00820000       1.35620000       0.01050000
C       -1.22640000       2.01430000       0.03060000
C       -1.24420000       3.41740000       0.03820000
C       -0.02920000       4.12160000       0.02520000
C        1.17690000       3.43180000       0.00500000
C        1.20080000       2.03900000      -0.00260000
C       -2.48560000       4.11670000       0.05880000
C       -3.53360000       4.70930000       0.07630000
H       -2.14770000       1.44550000       0.04030000
H       -0.04570000       5.20460000       0.03100000
H        2.11140000       3.98200000      -0.00490000
H        2.12940000       1.48120000      -0.01820000
H       -4.45800000       5.23160000       0.09160000
