21
Properties=species:S:1:pos:R:3 gdb_57625=T pbc="F F F"
C        0.17600000       1.55550000       0.07600000
C       -0.01430000       0.02260000       0.02660000
C        0.67170000      -0.63800000       1.24380000
C       -1.52360000      -0.36230000      -0.06400000
C       -2.36660000       0.06550000       1.11700000
C       -3.60420000      -0.67950000       1.45630000
N       -2.43290000      -0.74210000       2.34910000
C        0.63010000      -0.48090000      -1.19940000
N        1.12770000      -0.88140000      -2.16290000
H        1.23820000       1.81140000       0.04560000
H       -0.31620000       2.04260000      -0.77030000
H       -0.24240000       1.95720000       1.00240000
H        0.21220000      -0.28210000       2.16910000
H        0.58070000      -1.72750000       1.20410000
H        1.73640000      -0.39090000       1.26650000
H       -1.93400000       0.08330000      -0.97850000
H       -1.60150000      -1.44960000      -0.18710000
H       -2.36730000       1.13400000       1.32040000
H       -4.46370000      -0.15380000       1.86140000
H       -3.84970000      -1.55410000       0.85880000
H       -1.94840000      -1.62540000       2.20680000
