17
Properties=species:S:1:pos:R:3 gdb_128391=T pbc="F F F"
C        0.46840000       0.63260000       0.33740000
N       -0.64120000       0.48880000      -0.59980000
C       -1.57270000      -0.57150000      -0.33760000
C       -1.02920000      -2.05320000      -0.49780000
N       -1.48630000      -2.25410000       0.89120000
N       -1.68390000      -3.09720000       1.91140000
N       -2.27740000      -2.36250000       2.82870000
C       -2.47000000      -1.07990000       2.38580000
C       -1.95050000      -1.01440000       1.10930000
H        1.06820000       1.49730000       0.04300000
H        0.15470000       0.75920000       1.38510000
H        1.11930000      -0.24650000       0.28970000
H       -1.13680000       1.36660000      -0.69390000
H       -2.45860000      -0.40860000      -0.95590000
H       -1.55030000      -2.67660000      -1.22670000
H        0.05100000      -2.14150000      -0.62180000
H       -2.94730000      -0.34340000       3.00980000
