18
Properties=species:S:1:pos:R:3 gdb_106436=T pbc="F F F"
C        0.05840000       1.45070000       0.08000000
N       -0.06620000      -0.00160000      -0.02890000
C       -1.39740000      -0.48460000      -0.05380000
C       -2.45760000      -0.41710000       1.06950000
N       -3.17710000      -1.26440000       0.00270000
C       -2.62560000      -0.24220000      -1.00340000
C       -1.81290000      -1.97930000      -0.12890000
C       -1.57890000      -2.73410000      -1.35170000
N       -1.35040000      -3.33450000      -2.31310000
H        1.11730000       1.72020000       0.09010000
H       -0.43350000       2.00780000      -0.73370000
H       -0.37780000       1.78290000       1.02750000
H        0.44850000      -0.34750000      -0.83240000
H       -2.25890000      -0.95520000       2.00010000
H       -2.95360000       0.53780000       1.25210000
H       -3.13460000       0.72210000      -0.94870000
H       -2.57900000      -0.61600000      -2.02800000
H       -1.57560000      -2.59720000       0.74090000
