17
Properties=species:S:1:pos:R:3 gdb_19929=T pbc="F F F"
C       -0.00400000       1.48900000       0.21650000
C        1.25340000       0.72190000       0.03490000
C        1.99590000       0.33450000       1.30190000
O        1.92720000       1.28940000       2.39340000
C        1.13660000       0.38760000       3.19590000
C        1.07540000      -0.65710000       2.06250000
C       -0.20560000      -0.78220000       1.21010000
N       -0.06520000       0.04420000      -0.01090000
H       -0.19790000       1.88410000       1.21020000
H       -0.39340000       2.09390000      -0.59760000
H        1.80660000       0.76840000      -0.89840000
H        3.03120000       0.03920000       1.10470000
H        1.68230000       0.06520000       4.09120000
H        0.17980000       0.83030000       3.50230000
H        1.49840000      -1.62980000       2.31580000
H       -0.34560000      -1.81800000       0.88590000
H       -1.10580000      -0.48900000       1.76200000
