17
Properties=species:S:1:pos:R:3 gdb_95144=T pbc="F F F"
O        0.05260000       1.41060000      -0.25730000
C        0.02560000       0.02590000       0.02190000
C        0.63830000      -0.35420000       1.39260000
O       -0.31410000      -0.43940000       2.45650000
C       -1.59120000      -0.93970000       2.05460000
C       -1.50770000      -1.85120000       0.79590000
C       -1.41780000      -0.54270000      -0.05380000
C       -2.17920000       0.12930000       1.10390000
O       -2.90110000       1.07930000       1.20290000
H       -0.63080000       1.85090000       0.26240000
H        0.64110000      -0.43200000      -0.76130000
H        1.17180000      -1.31010000       1.29980000
H        1.36340000       0.40920000       1.68420000
H       -2.11870000      -1.26370000       2.95200000
H       -0.67780000      -2.55620000       0.73690000
H       -2.44930000      -2.38090000       0.63560000
H       -1.82440000      -0.49090000      -1.06410000
