21
Properties=species:S:1:pos:R:3 gdb_115666=T pbc="F F F"
C        0.01080000       1.60730000       0.16560000
C       -0.02120000       0.08030000       0.05450000
C        0.88510000      -0.57950000       1.07770000
O        0.47320000      -0.31360000       2.44120000
C        0.21470000      -1.70290000       2.70230000
C        0.75390000      -2.12350000       1.30740000
C       -0.11000000      -2.90210000       0.44470000
C       -0.83620000      -3.55370000      -0.26250000
C       -1.70950000      -4.34400000      -1.11850000
H        1.01500000       1.99980000      -0.03050000
H       -0.67450000       2.06980000      -0.55070000
H       -0.28130000       1.92180000       1.17160000
H       -1.04320000      -0.28990000       0.19200000
H        0.29640000      -0.24180000      -0.94550000
H        1.92410000      -0.25510000       0.92590000
H        0.78300000      -2.07610000       3.56210000
H       -0.85140000      -1.90740000       2.85510000
H        1.73740000      -2.59650000       1.38020000
H       -1.98340000      -3.79190000      -2.02440000
H       -1.22480000      -5.27510000      -1.43240000
H       -2.63790000      -4.61160000      -0.60190000
