17
Properties=species:S:1:pos:R:3 gdb_26282=T pbc="F F F"
C        0.13700000       1.35450000      -0.47420000
C        0.02130000       0.00700000       0.25890000
O        0.39070000       0.14980000       1.60730000
C       -1.38480000      -0.56010000       0.13510000
N       -2.09980000      -0.59940000       1.26300000
C       -3.34360000      -1.07680000       1.18350000
N       -3.95530000      -1.52690000       0.09220000
C       -3.22860000      -1.48870000      -1.03200000
C       -1.92820000      -1.00990000      -1.06840000
H        1.15040000       1.74270000      -0.34620000
H       -0.06600000       1.25260000      -1.54520000
H       -0.56650000       2.07680000      -0.04930000
H        0.70950000      -0.70700000      -0.22080000
H       -0.42280000       0.00800000       2.11840000
H       -3.91240000      -1.10100000       2.10990000
H       -3.71240000      -1.86010000      -1.93240000
H       -1.35780000      -0.99370000      -1.99000000
