17
Properties=species:S:1:pos:R:3 gdb_68887=T pbc="F F F"
O       -0.14350000       1.43910000       0.00230000
C       -0.03140000       0.06290000      -0.03050000
C       -0.25730000      -0.81350000       1.18640000
C       -1.15850000      -0.99620000       0.00400000
O       -2.52240000      -0.88610000       0.11530000
C       -0.46240000      -1.77380000      -1.09150000
O       -0.94140000      -1.35050000      -2.38860000
C        0.14650000      -0.40080000      -2.53070000
C        0.69090000      -0.71330000      -1.12430000
H        0.53820000       1.79400000       0.58350000
H        0.45450000      -1.57480000       1.50210000
H       -0.74870000      -0.28540000       1.99840000
H       -2.85240000      -0.72200000      -0.77820000
H       -0.34410000      -2.85860000      -1.02000000
H        0.81240000      -0.69540000      -3.35030000
H       -0.20520000       0.62330000      -2.69350000
H        1.75150000      -0.94760000      -1.01740000
