15
Properties=species:S:1:pos:R:3 gdb_14886=T pbc="F F F"
C        0.09790000      -1.17030000       0.03430000
C        0.00300000       0.02700000       0.00490000
C       -0.10250000       1.45880000      -0.02810000
N       -1.23980000       2.02430000       0.01060000
C       -1.29840000       3.48110000       0.03940000
C        0.02420000       4.13400000       0.45110000
C        1.15010000       3.45210000      -0.31330000
O        1.13190000       2.03350000      -0.09690000
H        0.17050000      -2.22970000       0.06060000
H       -1.60710000       3.83170000      -0.95540000
H       -2.10510000       3.76830000       0.72270000
H        0.02300000       5.20860000       0.24290000
H        0.18870000       4.00450000       1.52660000
H        1.05730000       3.63940000      -1.39150000
H        2.13980000       3.78320000       0.00880000
