15
Properties=species:S:1:pos:R:3 gdb_125716=T pbc="F F F"
C       -0.02710000       1.46370000      -0.03130000
C       -0.00740000      -0.03630000       0.01950000
N       -0.05690000      -0.66050000      -1.10300000
O       -0.03460000      -2.03210000      -1.07900000
C        0.04130000      -2.76870000       0.13230000
N        0.06100000      -4.03140000       0.06180000
N        0.08450000      -2.07930000       1.31670000
C        0.06820000      -0.78670000       1.28160000
N        0.15140000      -0.08960000       2.44150000
H        0.87030000       1.88770000       0.43380000
H       -0.06870000       1.78890000      -1.07170000
H       -0.90140000       1.87000000       0.49200000
H        0.01790000      -4.32940000      -0.91230000
H        0.10730000      -0.61810000       3.29850000
H       -0.04550000       0.89390000       2.47580000
