15
Properties=species:S:1:pos:R:3 gdb_4174=T pbc="F F F"
O       -0.12210000       1.32680000       0.05950000
N        0.02600000      -0.06440000       0.20060000
C       -1.08110000      -0.65240000       0.04490000
C       -2.52460000      -0.31590000      -0.24830000
O       -2.85070000      -1.73110000      -0.19250000
C       -1.48600000      -2.07770000       0.08710000
C       -0.82190000      -3.30110000      -0.46430000
C       -1.09570000      -3.17940000       1.02290000
H        0.77670000       1.64390000       0.19910000
H       -3.04340000       0.26470000       0.52290000
H       -2.71990000       0.12090000      -1.23420000
H       -1.45320000      -3.97270000      -1.03600000
H        0.19800000      -3.20440000      -0.82030000
H       -0.26540000      -2.99840000       1.69670000
H       -1.90750000      -3.77070000       1.43230000
