18
Properties=species:S:1:pos:R:3 gdb_91050=T pbc="F F F"
O        0.10550000       1.42820000      -0.14630000
C        0.02060000       0.04020000      -0.00090000
C        0.29260000      -0.59550000       1.41070000
C       -1.11030000      -1.26000000       1.38360000
C       -2.29610000      -0.43860000       1.94610000
N       -2.01960000       1.00380000       1.70200000
C       -2.57800000       0.16310000       0.61360000
C       -1.39730000      -0.63560000      -0.01360000
O       -1.74090000      -1.47720000      -1.07260000
H       -0.44660000       1.78480000       0.56660000
H        0.64780000      -0.40670000      -0.77900000
H        1.11900000      -1.30960000       1.42100000
H        0.44340000       0.14200000       2.20060000
H       -1.19420000      -2.33680000       1.52010000
H       -2.97200000      -0.72040000       2.74430000
H       -2.78770000       1.53580000       2.10780000
H       -3.51500000       0.41830000       0.13230000
H       -1.79230000      -0.94090000      -1.87280000
