19
Properties=species:S:1:pos:R:3 gdb_71137=T pbc="F F F"
C        0.01270000       1.51250000      -0.00150000
C        0.02820000      -0.00250000      -0.00230000
C       -1.31220000      -0.73120000       0.37360000
C       -0.51500000      -1.61620000       1.32510000
C        0.77380000      -2.15020000       0.67260000
C        0.70130000      -0.74170000       1.21150000
C        0.89420000      -2.11380000      -0.81930000
O        1.20520000      -3.02930000      -1.54000000
C        0.62120000      -0.66500000      -1.25200000
H        1.02190000       1.91780000      -0.13740000
H       -0.61310000       1.89910000      -0.81370000
H       -0.38300000       1.90500000       0.94130000
H       -1.98160000      -0.06660000       0.92690000
H       -1.87150000      -1.20670000      -0.44000000
H       -0.89830000      -2.13970000       2.19270000
H        1.28000000      -2.93720000       1.21780000
H        1.36070000      -0.32830000       1.96340000
H       -0.02390000      -0.62630000      -2.13440000
H        1.58340000      -0.20870000      -1.52150000
