17
Properties=species:S:1:pos:R:3 gdb_34131=T pbc="F F F"
N        0.04840000      -1.12750000      -0.08340000
C        0.01770000       0.02860000      -0.05380000
C        0.00290000       1.46990000       0.01050000
C       -0.37860000       2.26710000       1.28400000
N        0.42130000       3.39810000       0.72080000
C       -0.05330000       3.59240000      -0.74330000
C        1.38440000       3.25770000      -1.19610000
C        1.32330000       2.37280000       0.04250000
C       -0.80030000       2.27220000      -1.04190000
H       -1.43980000       2.45450000       1.46970000
H        0.10890000       1.90580000       2.19260000
H       -0.54430000       4.53520000      -0.97590000
H        1.53070000       2.81270000      -2.18190000
H        2.07690000       4.08550000      -1.03270000
H        2.18240000       1.98480000       0.58920000
H       -0.65890000       1.92940000      -2.06890000
H       -1.86880000       2.28370000      -0.81620000
