16
Properties=species:S:1:pos:R:3 gdb_133107=T pbc="F F F"
C        0.04380000       1.53620000      -0.13710000
C       -0.00610000       0.01780000       0.11150000
C       -1.40810000      -0.52870000       0.08340000
N       -2.01300000      -0.84860000       1.22520000
C       -3.26480000      -1.32020000       1.15910000
C       -3.92360000      -1.47980000      -0.05000000
N       -3.33390000      -1.16290000      -1.21190000
C       -2.11560000      -0.70090000      -1.12000000
F       -1.50800000      -0.37360000      -2.26040000
H        1.07620000       1.89540000      -0.10010000
H       -0.36650000       1.78540000      -1.11970000
H       -0.53160000       2.07450000       0.62200000
H        0.59580000      -0.49180000      -0.64910000
H        0.41790000      -0.21900000       1.09060000
H       -3.74500000      -1.57730000       2.09840000
H       -4.93690000      -1.86680000      -0.10120000
