22
Properties=species:S:1:pos:R:3 gdb_101114=T pbc="F F F"
C       -0.28540000       1.46230000       0.00580000
C       -0.03610000      -0.04890000      -0.04920000
C        0.82100000      -0.44220000      -1.26810000
O        0.20750000      -0.14330000      -2.51250000
C        0.61570000      -0.57360000       1.20700000
C        0.65310000      -2.05270000       1.64650000
C        0.59680000      -1.58360000       3.13830000
C        0.57940000      -0.13050000       2.64740000
N        1.73660000       0.15500000       1.80310000
H        0.65430000       2.00590000       0.13940000
H       -0.77310000       1.80870000      -0.91110000
H       -0.94440000       1.72280000       0.83930000
H       -1.00250000      -0.55950000      -0.16240000
H        1.81060000       0.03310000      -1.18220000
H        0.97910000      -1.52620000      -1.27290000
H        0.22530000       0.81090000      -2.62890000
H       -0.24020000      -2.61130000       1.35530000
H        1.53560000      -2.62010000       1.33170000
H       -0.32940000      -1.88680000       3.63220000
H        1.44000000      -1.85440000       3.78320000
H        0.07720000       0.70830000       3.11700000
H        2.53440000      -0.44160000       2.01740000
