17
Properties=species:S:1:pos:R:3 gdb_7612=T pbc="F F F"
C        0.13110000       1.29700000      -0.35850000
C        0.27830000      -0.14090000       0.06300000
O        1.60460000      -0.62910000       0.31360000
C        0.67810000      -0.59390000       1.41690000
C        0.97970000       0.33980000       2.56240000
C        0.16600000      -1.96000000       1.85620000
N        0.56400000      -2.98210000       1.05290000
O       -0.55490000      -2.08790000       2.82810000
H        0.78350000       1.96030000       0.21120000
H        0.38530000       1.40120000      -1.41850000
H       -0.90590000       1.62400000      -0.22930000
H       -0.33220000      -0.84110000      -0.51020000
H        1.20230000       1.35060000       2.21990000
H        0.12280000       0.35990000       3.23890000
H        1.84230000      -0.02800000       3.12740000
H        1.28770000      -2.81540000       0.37290000
H        0.32170000      -3.92190000       1.31860000
