17
Properties=species:S:1:pos:R:3 gdb_70012=T pbc="F F F"
C       -0.19960000       1.53800000       0.09910000
C        0.18300000       0.10300000      -0.03560000
O       -0.71010000      -0.91490000       0.46660000
C        0.63670000      -0.92830000       0.94310000
C        1.59590000      -1.52880000      -0.12910000
O        1.58440000      -2.83120000      -0.66400000
C        1.41950000      -2.67510000      -2.08970000
C        0.79560000      -1.29450000      -2.29090000
C        0.91710000      -0.64980000      -1.13960000
H        0.67030000       2.18550000      -0.04650000
H       -0.95140000       1.80880000      -0.65020000
H       -0.62100000       1.72530000       1.08990000
H        0.78620000      -0.85780000       2.01490000
H        2.61870000      -1.20380000       0.12970000
H        2.39050000      -2.79440000      -2.59740000
H        0.75470000      -3.46910000      -2.45160000
H        0.25520000      -1.01930000      -3.18750000
