19
Properties=species:S:1:pos:R:3 gdb_80461=T pbc="F F F"
C        0.15990000       1.66360000      -0.10070000
C        0.09640000       0.15880000       0.01740000
C        1.28390000      -0.73470000      -0.15240000
O        2.54430000      -0.10280000      -0.12380000
C        2.96820000       0.09120000       1.22840000
C        3.73930000       1.38700000       1.40440000
C        1.69930000      -0.03350000       2.08770000
O        1.62840000       0.22250000       3.26340000
C        0.64520000      -0.64020000       1.21370000
H        1.17430000       2.03520000       0.05420000
H       -0.15200000       1.97330000      -1.10370000
H       -0.50260000       2.14840000       0.62260000
H       -0.83450000      -0.27680000      -0.33940000
H        1.25100000      -1.62700000      -0.77000000
H        3.61270000      -0.75550000       1.52340000
H        3.13800000       2.25280000       1.11450000
H        4.01050000       1.49380000       2.45820000
H        4.65060000       1.38010000       0.80150000
H        0.01100000      -1.39800000       1.65670000
