18
Properties=species:S:1:pos:R:3 gdb_102878=T pbc="F F F"
C        0.04060000       1.44460000      -0.16380000
N        0.03960000      -0.00740000      -0.11730000
C       -1.06660000      -0.62200000       0.04200000
C       -2.43440000       0.02900000       0.24440000
O       -3.50430000      -0.89510000       0.34700000
N       -1.11560000      -1.99680000       0.01790000
C        0.11870000      -2.75230000       0.00360000
C       -0.11100000      -4.12060000      -0.46540000
N       -0.29440000      -5.20470000      -0.81900000
H        1.07260000       1.79640000      -0.24080000
H       -0.50390000       1.84350000      -1.03340000
H       -0.39560000       1.90700000       0.73460000
H       -2.41890000       0.59070000       1.18490000
H       -2.60250000       0.76150000      -0.55670000
H       -3.71280000      -1.21100000      -0.53850000
H       -1.92890000      -2.40920000       0.45020000
H        0.81680000      -2.23720000      -0.66340000
H        0.60960000      -2.79060000       0.98780000
