18
Properties=species:S:1:pos:R:3 gdb_31844=T pbc="F F F"
C       -0.08690000       1.39350000      -0.07520000
O       -0.01440000      -0.01300000      -0.00020000
C        0.64480000      -0.56250000       1.06430000
C        1.24700000       0.16040000       2.09360000
C        1.89150000      -0.50810000       3.13470000
C        1.95360000      -1.90190000       3.17570000
N        2.66090000      -2.57090000       4.18900000
C        1.34340000      -2.61650000       2.13410000
C        0.70040000      -1.95910000       1.09790000
H        0.90980000       1.85210000      -0.13500000
H       -0.64010000       1.62400000      -0.98780000
H       -0.62010000       1.82260000       0.78450000
H        1.22220000       1.24260000       2.10400000
H        2.35710000       0.07180000       3.92660000
H        2.72080000      -2.05060000       5.05350000
H        2.32230000      -3.50600000       4.37000000
H        1.37860000      -3.70220000       2.13800000
H        0.22780000      -2.51510000       0.29590000
