18
Properties=species:S:1:pos:R:3 gdb_113910=T pbc="F F F"
N       -0.35290000       0.26560000       1.11300000
C       -0.02800000       0.04440000      -0.19260000
O        0.86150000       0.63410000      -0.77150000
C       -0.92730000      -0.98610000      -0.89380000
C       -1.01150000      -2.30390000      -0.15450000
O       -1.71530000      -2.31710000       1.10180000
C       -2.23000000      -3.11380000       0.01540000
C       -3.60760000      -2.74710000      -0.47740000
O       -4.60370000      -3.20270000       0.42200000
H        0.23910000       0.88030000       1.64740000
H       -1.00300000      -0.33720000       1.59210000
H       -1.92050000      -0.54440000      -1.01420000
H       -0.50430000      -1.14680000      -1.88800000
H       -0.06490000      -2.84530000      -0.11140000
H       -2.09810000      -4.18500000       0.17580000
H       -3.68440000      -1.66480000      -0.64600000
H       -3.80230000      -3.25100000      -1.43040000
H       -4.43060000      -2.78490000       1.27300000
