18
Properties=species:S:1:pos:R:3 gdb_80687=T pbc="F F F"
C       -0.13510000       1.53320000       0.07600000
C       -0.00010000       0.03810000      -0.07090000
C        0.72130000      -0.64040000      -1.18010000
C        1.71270000       0.11150000      -2.07100000
C        2.78550000       0.51120000      -1.07530000
C        3.97010000       1.28940000      -1.39690000
O        4.21790000       1.73320000      -2.50010000
C        2.44910000       0.06770000       0.15230000
N        1.27550000      -0.70860000       0.21010000
H        0.73640000       2.07670000      -0.29210000
H       -1.01030000       1.87300000      -0.48830000
H       -0.29110000       1.80610000       1.12480000
H       -0.84610000      -0.51280000       0.33480000
H        0.31370000      -1.57580000      -1.55140000
H        2.10860000      -0.54050000      -2.85640000
H        1.28280000       0.98250000      -2.57920000
H        4.65830000       1.46370000      -0.53940000
H        3.00120000       0.23010000       1.07190000
