18
Properties=species:S:1:pos:R:3 gdb_56985=T pbc="F F F"
N       -0.05850000       1.49590000       0.08700000
C       -0.10960000       0.03030000       0.03670000
C       -1.51520000      -0.40550000       0.05540000
N       -2.61920000      -0.74460000       0.04460000
C        0.61410000      -0.58080000      -1.17760000
C        2.15880000      -0.43600000      -1.28130000
C        2.18910000      -1.96030000      -1.38330000
C        1.55450000      -2.57750000      -0.20810000
N        0.67300000      -2.08370000      -1.28730000
H        0.91230000       1.79350000       0.11750000
H       -0.46300000       1.88640000      -0.75980000
H        0.35070000      -0.33580000       0.96160000
H        0.11930000      -0.21210000      -2.08090000
H        2.47810000       0.08270000      -2.18600000
H        2.69200000      -0.00800000      -0.42500000
H        2.75390000      -2.52840000      -2.11420000
H        1.54510000      -3.66070000      -0.14530000
H        1.58840000      -2.07610000       0.75620000
