17
Properties=species:S:1:pos:R:3 gdb_95597=T pbc="F F F"
C        0.30920000       1.62790000       0.00830000
C        0.18910000       0.10410000      -0.00250000
C        0.84150000      -0.57890000      -1.21240000
C        0.61220000      -2.07780000      -1.14710000
O        1.14090000      -2.67950000       0.04790000
C        1.15220000      -2.03220000       1.23430000
O        1.50740000      -2.59640000       2.22710000
C        0.74210000      -0.52300000       1.26930000
O        0.88800000       0.07450000       2.30160000
H        1.35980000       1.93480000      -0.01110000
H       -0.18990000       2.05770000      -0.86490000
H       -0.13920000       2.04400000       0.91210000
H       -0.87990000      -0.16980000      -0.01170000
H        0.41790000      -0.19220000      -2.14550000
H        1.91770000      -0.36600000      -1.23440000
H       -0.46060000      -2.30600000      -1.19990000
H        1.10750000      -2.60120000      -1.96790000
