15
Properties=species:S:1:pos:R:3 gdb_105444=T pbc="F F F"
O        0.04350000       1.36850000       0.04690000
C       -0.03300000      -0.03090000       0.06870000
C       -1.47010000      -0.54800000      -0.10230000
C       -1.60160000      -2.09420000       0.10610000
N       -2.39120000      -2.24360000       1.33310000
C       -2.68830000      -1.07640000       1.71230000
O       -2.25950000       0.00110000       0.99490000
C       -2.06190000      -0.08700000      -1.36310000
N       -2.51440000       0.22740000      -2.37810000
H       -0.52970000       1.70190000       0.74700000
H        0.58280000      -0.40350000      -0.75580000
H        0.35270000      -0.46110000       1.00670000
H       -2.10490000      -2.58410000      -0.73090000
H       -0.61840000      -2.56100000       0.22790000
H       -3.27580000      -0.82000000       2.58610000
