25
Properties=species:S:1:pos:R:3 gdb_122344=T pbc="F F F"
C       -0.30200000       1.47230000      -0.04530000
C        0.03450000      -0.01700000       0.06740000
C        0.62600000      -0.60280000      -1.21870000
C        0.96370000      -2.09690000      -1.11120000
C        1.58170000      -2.64690000      -2.38080000
C        1.63320000      -4.13540000      -2.69520000
C        1.08600000      -5.19050000      -1.75680000
C        0.71580000      -3.23540000      -3.47810000
O       -0.65740000      -3.40580000      -3.25650000
H        0.59030000       2.06290000      -0.28150000
H       -1.03580000       1.65420000      -0.83870000
H       -0.72000000       1.86070000       0.88880000
H        0.74320000      -0.17140000       0.89180000
H       -0.86940000      -0.57870000       0.33860000
H       -0.07970000      -0.44760000      -2.04790000
H        1.53110000      -0.04200000      -1.49120000
H        1.65320000      -2.24950000      -0.26970000
H        0.05320000      -2.65330000      -0.86760000
H        2.43940000      -2.07400000      -2.72920000
H        2.52360000      -4.45060000      -3.23360000
H        0.10340000      -4.91760000      -1.36930000
H        0.97480000      -6.14540000      -2.28160000
H        1.76000000      -5.35400000      -0.90890000
H        0.97660000      -3.01650000      -4.51380000
H       -1.07790000      -2.54180000      -3.31790000
