18
Properties=species:S:1:pos:R:3 gdb_121523=T pbc="F F F"
C       -1.06130000       1.24020000       0.27870000
N       -1.13780000      -0.17700000      -0.07700000
H       -3.25250000      -0.62940000      -1.12410000
H       -0.51560000      -0.35580000      -0.86070000
C       -0.76890000      -1.05400000       1.03610000
C       -0.79140000      -2.54910000       0.63660000
C       -2.03820000      -2.84150000      -0.05010000
C       -3.07470000      -2.78340000      -0.66170000
C       -4.19900000      -2.26120000      -1.41720000
O       -5.12590000      -2.87310000      -1.86850000
O       -4.07410000      -0.91830000      -1.56710000
H       -1.28600000       1.84980000      -0.60030000
H       -1.81220000       1.46290000       1.04380000
H       -0.07820000       1.54660000       0.67340000
H        0.22720000      -0.81870000       1.44960000
H       -1.49580000      -0.89060000       1.83990000
H        0.05430000      -2.77570000      -0.02680000
H       -0.65290000      -3.16600000       1.53120000
