21
Properties=species:S:1:pos:R:3 gdb_122915=T pbc="F F F"
C       -0.06440000       1.39910000       0.02880000
O       -0.03410000      -0.00640000       0.00450000
C        0.64290000      -0.52260000      -1.12010000
C        0.61540000      -2.04320000      -1.04840000
C        1.33570000      -2.69620000      -2.23000000
C        1.26300000      -4.23540000      -2.18590000
O       -0.08160000      -4.70970000      -2.16350000
C        2.02380000      -4.83230000      -3.28810000
C        2.61590000      -5.29870000      -4.22490000
H        0.94900000       1.83120000       0.06190000
H       -0.58190000       1.81390000      -0.85140000
H       -0.60500000       1.70070000       0.92930000
H        0.16240000      -0.17270000      -2.05150000
H        1.68440000      -0.15460000      -1.14290000
H        1.07940000      -2.35700000      -0.10530000
H       -0.42350000      -2.38410000      -1.01660000
H        0.90130000      -2.35810000      -3.18050000
H        2.39230000      -2.40220000      -2.25080000
H        1.68940000      -4.57630000      -1.23380000
H       -0.43850000      -4.60700000      -3.05290000
H        3.14810000      -5.72630000      -5.03850000
