20
Properties=species:S:1:pos:R:3 gdb_63519=T pbc="F F F"
C        0.14290000       1.54550000      -0.26020000
C        0.00100000       0.04840000      -0.06070000
C       -1.25320000      -0.56350000      -0.65530000
C        1.27790000      -0.79830000      -0.06960000
C        0.54040000      -0.54460000       1.20050000
C        0.97020000       0.07600000       2.52590000
C        0.21500000      -1.09620000       3.12100000
N       -0.02710000      -1.49960000       4.28220000
O       -0.14670000      -1.62170000       1.89290000
H        1.05400000       1.93400000       0.20520000
H        0.18640000       1.79030000      -1.32760000
H       -0.70980000       2.08380000       0.16950000
H       -1.26300000      -0.44260000      -1.74430000
H       -1.32790000      -1.62910000      -0.42660000
H       -2.15020000      -0.07580000      -0.25700000
H        1.21260000      -1.79870000      -0.48520000
H        2.23360000      -0.30510000      -0.21920000
H        2.04200000       0.07670000       2.73320000
H        0.54980000       1.05600000       2.76010000
H       -0.58390000      -2.35580000       4.26780000
