18
Properties=species:S:1:pos:R:3 gdb_53133=T pbc="F F F"
C        0.19060000       1.63140000      -0.14570000
C        0.04640000       0.18640000      -0.05280000
C       -0.12390000      -1.00070000       0.06210000
C       -0.17150000      -2.43780000       0.08300000
C       -0.44950000      -3.39360000       1.23210000
C       -1.67200000      -3.02660000       2.11880000
N       -2.25290000      -1.74940000       1.64460000
C       -2.55530000      -3.01440000       0.93620000
C       -1.36160000      -3.38100000       0.01080000
H        1.16500000       1.96310000       0.23180000
H        0.10770000       1.97770000      -1.18260000
H       -0.58170000       2.14730000       0.43690000
H        0.63170000      -2.86270000      -0.52130000
H        0.27530000      -4.14400000       1.52240000
H       -1.84240000      -3.38990000       3.12350000
H       -3.05230000      -1.54290000       2.24370000
H       -3.57060000      -3.36610000       0.80970000
H       -1.44160000      -4.12030000      -0.77640000
