23
Properties=species:S:1:pos:R:3 gdb_76335=T pbc="F F F"
C       -0.38280000       1.43330000       0.19020000
C       -0.09770000      -0.05690000       0.02030000
C        0.78690000      -0.47180000      -1.20510000
C        0.89010000       0.42310000      -2.43250000
C        2.01930000      -0.60610000      -0.26170000
C        2.95910000      -1.78240000      -0.45200000
O        2.74320000       0.63070000      -0.26360000
C        1.03100000      -0.61530000       0.95250000
O        1.42460000       0.11680000       2.08100000
H        0.52120000       2.04100000       0.09200000
H       -1.09880000       1.78260000      -0.56070000
H       -0.81030000       1.62570000       1.17900000
H       -1.04000000      -0.60930000       0.09130000
H        0.49870000      -1.48080000      -1.52140000
H        1.23020000       1.42770000      -2.17370000
H        1.60220000       0.01100000      -3.15580000
H       -0.07980000       0.50550000      -2.93450000
H        3.51300000      -1.69480000      -1.39300000
H        3.68470000      -1.83960000       0.37030000
H        2.40610000      -2.72630000      -0.46500000
H        3.57780000       0.47890000       0.19230000
H        0.81050000      -1.63150000       1.29320000
H        1.83750000       0.91870000       1.73450000
