19
Properties=species:S:1:pos:R:3 gdb_3993=T pbc="F F F"
C        0.02740000       1.36430000      -0.02390000
O        0.00310000      -0.04130000       0.03330000
C       -1.30020000      -0.57180000      -0.05150000
C       -1.19330000      -2.09770000      -0.00650000
C       -2.53890000      -2.77290000       0.01790000
C       -3.41750000      -2.66820000       1.23710000
N       -2.86530000      -3.41780000      -1.03730000
O       -4.14010000      -3.99720000      -0.91470000
H        1.07180000       1.67710000       0.05010000
H       -0.39100000       1.74330000      -0.96990000
H       -0.53890000       1.81810000       0.80550000
H       -1.92140000      -0.19650000       0.78050000
H       -1.79030000      -0.25770000      -0.98820000
H       -0.63220000      -2.44240000      -0.87800000
H       -0.62530000      -2.37090000       0.89180000
H       -4.33080000      -2.10730000       1.01030000
H       -3.73950000      -3.66440000       1.55530000
H       -2.89940000      -2.17660000       2.06270000
H       -4.23130000      -4.46010000      -1.75400000
