20
Properties=species:S:1:pos:R:3 gdb_77592=T pbc="F F F"
C       -0.15440000       1.58420000      -0.04600000
C        0.04060000       0.07500000       0.02100000
C        1.05830000      -0.61560000      -0.91190000
O        0.70950000      -1.18330000      -2.12520000
C        2.47970000      -0.28090000      -0.55690000
C        1.72870000      -1.30770000       0.26840000
C        0.79450000      -0.57660000       1.20870000
C        1.04890000      -0.02440000       2.55700000
N        0.17680000      -1.20810000       2.36580000
H        0.79720000       2.11830000       0.03870000
H       -0.62250000       1.87550000      -0.99290000
H       -0.80660000       1.93820000       0.76050000
H       -0.92120000      -0.43840000      -0.10180000
H        0.90490000      -0.55020000      -2.82430000
H        3.21100000      -0.70450000      -1.23850000
H        2.76180000       0.67700000      -0.12590000
H        2.06050000      -2.33210000       0.37740000
H        1.98720000      -0.22780000       3.06640000
H        0.58640000       0.92380000       2.82130000
H       -0.80120000      -0.93430000       2.43590000
