21
Properties=species:S:1:pos:R:3 gdb_86204=T pbc="F F F"
C       -0.15330000       1.47360000      -0.22050000
C       -0.01340000      -0.01340000       0.06100000
O        0.45310000      -0.66410000      -1.11810000
C        1.25040000      -1.81150000      -0.79180000
C        2.59920000      -1.70880000      -1.49160000
C        1.33260000      -1.84520000       0.76760000
O        2.54720000      -2.30110000       1.30600000
C        0.98520000      -0.39760000       1.15920000
O        2.21100000       0.32850000       1.09510000
H        0.82120000       1.90480000      -0.46370000
H       -0.81800000       1.63100000      -1.07370000
H       -0.57810000       1.99730000       0.64300000
H       -0.99780000      -0.42320000       0.35210000
H        0.72360000      -2.70680000      -1.15030000
H        3.13460000      -0.81420000      -1.16260000
H        3.21020000      -2.58840000      -1.27220000
H        2.45000000      -1.64350000      -2.57290000
H        0.54990000      -2.50740000       1.15170000
H        3.13350000      -1.53330000       1.32210000
H        0.54720000      -0.32970000       2.16260000
H        2.08520000       1.19450000       1.49210000
