14
Properties=species:S:1:pos:R:3 gdb_10388=T pbc="F F F"
O       -0.13490000      -0.04550000      -0.24620000
C        0.00980000       1.07700000       0.15650000
C        1.30800000       1.86420000       0.03730000
C        2.46550000       1.16750000      -0.69150000
O        2.38530000       2.08630000      -1.80310000
C        1.30250000       2.81300000      -1.21240000
C        1.59310000       2.56920000       1.34460000
O        0.84610000       3.38760000       1.81730000
H       -0.81150000       1.64930000       0.63540000
H        3.43650000       1.22330000      -0.18230000
H        2.25620000       0.13530000      -0.98720000
H        0.38960000       2.77690000      -1.81930000
H        1.55120000       3.85740000      -0.99190000
H        2.53750000       2.27420000       1.85290000
