21
Properties=species:S:1:pos:R:3 gdb_111492=T pbc="F F F"
C       -1.01860000       1.05080000      -0.03820000
C        0.02360000      -0.06670000      -0.11380000
C        1.18690000       0.23740000      -1.10220000
C        2.37850000      -0.52550000      -0.55090000
O        2.97750000       0.12630000       0.57610000
C        2.08260000      -0.97420000       0.81700000
C        0.68480000      -0.52740000       1.23420000
C        0.76380000       0.50890000       2.37120000
O       -0.47970000       0.72400000       3.02420000
H       -0.58890000       1.98200000       0.35030000
H       -1.41040000       1.27650000      -1.03580000
H       -1.87040000       0.76600000       0.58800000
H       -0.48530000      -0.95580000      -0.50640000
H        0.93490000      -0.07470000      -2.12060000
H        1.42420000       1.30700000      -1.13840000
H        3.07430000      -1.04230000      -1.20750000
H        2.54570000      -1.84670000       1.27250000
H        0.13080000      -1.38270000       1.63690000
H        1.44170000       0.12720000       3.14250000
H        1.20050000       1.44600000       2.00510000
H       -1.00020000       1.32370000       2.48440000
