14
Properties=species:S:1:pos:R:3 gdb_26844=T pbc="F F F"
O        0.07160000       1.31370000       0.15930000
C        0.05550000      -0.02140000       0.01290000
C        0.02810000      -0.79240000      -1.14660000
O       -0.03280000      -0.20210000      -2.38640000
C        0.01190000      -2.14120000      -0.75260000
C        0.03620000      -2.16300000       0.64110000
N        0.05220000      -0.84700000       1.07850000
C        0.04120000      -3.23610000       1.59340000
O        0.05630000      -3.07160000       2.80410000
H        0.07700000       1.69410000      -0.72880000
H        0.56900000      -0.65580000      -2.98490000
H       -0.01450000      -3.00970000      -1.39380000
H        0.06620000      -0.59410000       2.05390000
H        0.03010000      -4.25090000       1.14280000
