19
Properties=species:S:1:pos:R:3 gdb_18265=T pbc="F F F"
C        0.09620000       1.33520000       0.11030000
O       -0.17970000      -0.02460000      -0.12800000
C        0.55930000      -0.57950000      -1.19480000
C        2.06730000      -0.80200000      -0.90290000
C        2.47860000      -2.00220000      -1.78730000
C        1.20010000      -2.81570000      -1.91450000
N        0.52630000      -3.01210000      -0.61430000
C        0.04670000      -1.96250000      -1.54130000
H        1.12980000       1.50110000       0.44850000
H       -0.07260000       1.94910000      -0.78980000
H       -0.58470000       1.67120000       0.89650000
H        0.44220000       0.06020000      -2.08880000
H        2.67440000       0.08560000      -1.09480000
H        2.16240000      -1.06270000       0.15370000
H        2.79190000      -1.66850000      -2.78380000
H        3.30630000      -2.57390000      -1.35550000
H        1.11640000      -3.58680000      -2.67380000
H       -0.09970000      -3.81080000      -0.67840000
H       -0.93120000      -2.06820000      -1.99900000
