20
Properties=species:S:1:pos:R:3 gdb_100191=T pbc="F F F"
C       -0.15360000       1.60420000       0.10510000
C       -0.04420000       0.07880000      -0.01570000
C        0.78320000      -0.51130000       1.13520000
O        0.26500000      -0.01650000       2.36110000
C       -1.44800000      -0.53660000      -0.00470000
O       -1.70780000      -1.63750000       0.40520000
C        0.56400000      -0.40550000      -1.34240000
C        0.26280000       0.22010000      -2.65690000
N        1.60940000       0.32570000      -2.06830000
H        0.82800000       2.08360000       0.03740000
H       -0.80030000       2.03000000      -0.66820000
H       -0.56970000       1.86540000       1.07980000
H        0.70900000      -1.60430000       1.08590000
H        1.83960000      -0.22850000       1.00600000
H        0.53430000      -0.61140000       3.06560000
H       -2.23390000       0.10330000      -0.46840000
H        0.72950000      -1.48160000      -1.34120000
H        0.19640000      -0.40150000      -3.54500000
H       -0.36110000       1.10860000      -2.68250000
H        1.73560000       1.25360000      -1.67180000
