21
Properties=species:S:1:pos:R:3 gdb_106628=T pbc="F F F"
C       -0.06140000       1.33320000       0.04560000
O        0.11170000      -0.06820000       0.01740000
C        0.70450000      -0.56330000      -1.13660000
C       -0.00280000      -0.55180000      -2.53560000
C        0.97480000      -1.72930000      -2.80380000
C        2.35180000      -1.03620000      -2.76070000
C        2.14970000      -0.13990000      -1.49770000
C        0.75940000      -2.09550000      -1.30190000
O        1.76810000      -2.75400000      -0.57870000
H        0.89690000       1.87070000       0.06170000
H       -0.64580000       1.68980000      -0.81530000
H       -0.60820000       1.56740000       0.96200000
H       -1.04890000      -0.85930000      -2.47340000
H        0.10180000       0.33850000      -3.16000000
H        0.79170000      -2.45000000      -3.60020000
H        3.16400000      -1.75340000      -2.62470000
H        2.54840000      -0.45680000      -3.66700000
H        2.22500000       0.92720000      -1.72190000
H        2.84600000      -0.38020000      -0.69230000
H       -0.22840000      -2.53770000      -1.12430000
H        1.69220000      -3.69910000      -0.73990000
