18
Properties=species:S:1:pos:R:3 gdb_69791=T pbc="F F F"
C        0.02830000       1.56590000       0.00380000
C        0.12380000       0.06670000       0.03900000
N       -0.80400000      -0.74250000       0.88020000
C        0.64690000      -0.77130000       1.14990000
C        1.34820000      -2.00610000       0.58760000
C        0.47810000      -3.01880000      -0.08790000
C        1.18170000      -1.95540000      -0.92310000
C        0.49140000      -0.65900000      -1.25520000
O        0.38600000      -0.17420000      -2.35570000
H        0.95770000       2.01050000      -0.36490000
H       -0.77460000       1.88210000      -0.66930000
H       -0.17200000       1.96880000       1.00210000
H       -1.25990000      -0.11200000       1.53780000
H        1.02060000      -0.32720000       2.06620000
H        2.28650000      -2.30430000       1.03900000
H        0.87350000      -4.02200000      -0.20320000
H       -0.59150000      -2.94890000       0.05550000
H        1.94560000      -2.27910000      -1.61950000
