17
Properties=species:S:1:pos:R:3 gdb_69337=T pbc="F F F"
C        0.07890000       1.54830000      -0.02620000
C       -0.08210000       0.07280000       0.12110000
C       -1.37100000      -0.76270000       0.03990000
C       -0.70700000      -1.80470000       1.01900000
N       -1.33970000      -1.76780000       2.33150000
C       -0.52820000      -3.16210000       0.48390000
N       -0.41050000      -4.25240000       0.11620000
C        0.56410000      -0.91720000       0.99600000
O        0.97010000      -0.78750000      -0.36000000
H        1.10010000       1.84660000       0.22410000
H       -0.12480000       1.85910000      -1.05700000
H       -0.61590000       2.07990000       0.63140000
H       -2.23330000      -0.29620000       0.51970000
H       -1.62840000      -1.12460000      -0.95670000
H       -2.27670000      -2.15800000       2.27580000
H       -0.82310000      -2.35360000       2.98270000
H        1.31090000      -0.83300000       1.77770000
