18
Properties=species:S:1:pos:R:3 gdb_86962=T pbc="F F F"
O       -0.69710000       1.26370000      -0.80000000
C       -0.10670000       0.14900000      -0.14240000
C       -1.12240000      -0.92180000       0.32610000
C       -1.09870000      -2.00830000      -0.76150000
O       -2.16490000      -1.74610000      -1.70300000
C       -2.67930000      -2.79260000      -2.37480000
N       -3.50360000      -2.60230000      -3.31150000
C        0.24280000      -1.80190000      -1.43010000
C        0.78590000      -0.63610000      -1.08350000
H       -1.18290000       0.92130000      -1.56060000
H        0.44030000       0.58220000       0.70010000
H       -0.79340000      -1.35740000       1.27420000
H       -2.12050000      -0.50380000       0.46620000
H       -1.23710000      -3.01740000      -0.35540000
H       -2.32100000      -3.76580000      -2.00860000
H       -3.81530000      -3.49580000      -3.68630000
H        0.64480000      -2.50760000      -2.14860000
H        1.71020000      -0.22450000      -1.47280000
