23
Properties=species:S:1:pos:R:3 gdb_101735=T pbc="F F F"
C       -0.13390000       1.56920000      -0.15440000
C        0.04470000       0.05190000      -0.00870000
C        0.75770000      -0.52830000      -1.23210000
O       -0.03440000      -0.26890000      -2.38210000
C        0.79860000      -0.34490000       1.27360000
C        0.05750000      -0.03070000       2.56860000
C       -1.16840000      -0.90750000       2.92120000
O       -0.55800000      -1.35380000       4.14870000
C        0.64670000      -0.61110000       3.87510000
H        0.83660000       2.08000000      -0.11880000
H       -0.60260000       1.80200000      -1.11270000
H       -0.75920000       1.98560000       0.64030000
H       -0.95140000      -0.41270000       0.01640000
H        1.75710000      -0.07010000      -1.32620000
H        0.90500000      -1.61130000      -1.09280000
H        0.44720000      -0.57390000      -3.15610000
H        1.00860000      -1.42340000       1.24950000
H        1.77660000       0.15750000       1.28890000
H       -0.15250000       1.03850000       2.64600000
H       -2.11350000      -0.38070000       3.10090000
H       -1.35530000      -1.74090000       2.22950000
H        1.51450000      -1.27160000       3.73820000
H        0.87420000       0.10990000       4.67000000
