16
Properties=species:S:1:pos:R:3 gdb_2584=T pbc="F F F"
C        0.07050000       1.49000000      -0.26590000
C       -0.04740000       0.03640000       0.20140000
C       -1.45980000      -0.52890000       0.07990000
C       -1.92110000      -1.09270000      -1.25700000
C       -1.64950000      -2.02580000      -0.11480000
C       -2.45550000       0.14830000       0.87450000
N       -3.24050000       0.70260000       1.51940000
H        1.09800000       1.84860000      -0.15680000
H       -0.21370000       1.59170000      -1.31830000
H       -0.57940000       2.14550000       0.32170000
H        0.61900000      -0.60320000      -0.38890000
H        0.28140000      -0.04930000       1.24370000
H       -2.95040000      -0.92610000      -1.55040000
H       -1.20410000      -1.04410000      -2.06930000
H       -0.74530000      -2.62400000      -0.13510000
H       -2.49360000      -2.49570000       0.37540000
