21
Properties=species:S:1:pos:R:3 gdb_76219=T pbc="F F F"
C        0.02030000       1.50360000       0.02360000
C       -0.03490000       0.01220000      -0.04670000
C       -0.04160000      -0.77450000      -1.12740000
C       -0.00720000      -2.22470000      -0.76910000
C        1.25350000      -2.65240000      -0.03550000
C        0.00880000      -2.27630000       0.74220000
C       -0.70570000      -3.33130000       1.55090000
C       -0.07100000      -0.82360000       1.23130000
O        0.91740000      -0.45990000       2.19070000
H        0.86310000       1.82910000       0.64370000
H        0.11800000       1.95520000      -0.96720000
H       -0.88300000       1.90960000       0.49810000
H       -0.02140000      -0.42390000      -2.15440000
H       -0.54630000      -2.95550000      -1.36240000
H        1.51500000      -3.70630000      -0.03780000
H        2.10540000      -1.97940000      -0.08020000
H       -0.61110000      -4.32170000       1.09460000
H       -0.29170000      -3.38790000       2.56440000
H       -1.77470000      -3.10540000       1.64070000
H       -1.01960000      -0.66180000       1.76310000
H        1.77290000      -0.71360000       1.82580000
