17
Properties=species:S:1:pos:R:3 gdb_29712=T pbc="F F F"
C       -0.02960000       1.43630000       0.02650000
N        0.03940000      -0.00690000       0.00000000
C        0.11010000      -0.79350000      -1.11030000
O        0.12140000      -0.16670000      -2.31870000
C        0.15710000      -2.11880000      -0.74790000
C        0.10560000      -2.15110000       0.68580000
N        0.18990000      -3.30070000       1.50310000
C        0.04050000      -0.85430000       1.11640000
O       -0.09050000      -0.34780000       2.38210000
H        0.93970000       1.89720000      -0.19930000
H       -0.75820000       1.79610000      -0.70440000
H       -0.34280000       1.74130000       1.02600000
H        0.12680000      -0.84200000      -3.00330000
H        0.23160000      -2.96590000      -1.41240000
H       -0.38840000      -4.05250000       1.14450000
H       -0.12770000      -3.08620000       2.44220000
H        0.78460000      -0.20260000       2.76270000
