19
Properties=species:S:1:pos:R:3 gdb_104131=T pbc="F F F"
C        0.20180000       1.39490000       0.04240000
O        0.21110000      -0.02410000       0.04930000
C        0.63110000      -0.64080000       1.25280000
C       -0.23800000      -0.28410000       2.44950000
C        0.72680000      -2.12940000       0.90640000
C        2.13150000      -2.24350000       0.31980000
O        2.58690000      -3.14160000      -0.33420000
C        2.86750000      -0.96560000       0.73470000
O        1.97170000      -0.25570000       1.57460000
H        1.13700000       1.80250000       0.44210000
H        0.09240000       1.69840000      -1.00100000
H       -0.64100000       1.80350000       0.61540000
H       -1.28670000      -0.49820000       2.22830000
H        0.06960000      -0.86410000       3.32230000
H       -0.13660000       0.77490000       2.69820000
H        0.66780000      -2.74720000       1.80890000
H       -0.03440000      -2.45770000       0.19920000
H        3.78100000      -1.19510000       1.29170000
H        3.14170000      -0.39440000      -0.16290000
