22
Properties=species:S:1:pos:R:3 gdb_101583=T pbc="F F F"
C        0.00110000       1.55780000      -0.00180000
C       -0.02040000       0.02970000       0.08090000
C       -1.42330000      -0.56870000       0.00880000
C       -1.43100000      -2.09360000       0.01070000
O       -2.13920000      -0.07670000       1.16840000
C       -3.49060000       0.00100000       1.05630000
O       -4.12450000      -0.29780000       0.06610000
N       -4.01600000       0.46850000       2.22070000
C       -5.43760000       0.64940000       2.41360000
H        1.02440000       1.94070000       0.05490000
H       -0.43550000       1.90840000      -0.94350000
H       -0.57260000       1.99960000       0.81730000
H        0.56540000      -0.39830000      -0.74140000
H        0.45670000      -0.30510000       1.01070000
H       -1.94780000      -0.20270000      -0.87940000
H       -0.88160000      -2.47550000      -0.85570000
H       -0.95710000      -2.48230000       0.91800000
H       -2.45630000      -2.46600000      -0.04290000
H       -3.37200000       0.67000000       2.96660000
H       -5.68070000       1.69070000       2.65450000
H       -5.93100000       0.37950000       1.47920000
H       -5.82200000       0.00740000       3.21500000
