20
Properties=species:S:1:pos:R:3 gdb_90415=T pbc="F F F"
C       -0.58030000       1.45790000       0.08950000
C       -0.11080000       0.01790000       0.03140000
C        1.00700000      -0.38960000      -0.98010000
C        1.74010000      -1.08930000       0.19680000
C        2.90860000      -0.38740000       0.94360000
C        3.94730000       0.45730000       0.22100000
C        1.77330000       0.37090000       1.67610000
O        1.71050000       1.36300000       2.34640000
N        0.75790000      -0.48000000       1.16680000
H        0.25690000       2.15720000       0.15420000
H       -1.15670000       1.68860000      -0.81290000
H       -1.22330000       1.62440000       0.95850000
H       -0.97450000      -0.65080000      -0.04250000
H        0.70160000      -1.03760000      -1.80400000
H        1.54380000       0.47050000      -1.39080000
H        1.76540000      -2.18030000       0.15660000
H        3.40530000      -1.09730000       1.61470000
H        3.48740000       1.16610000      -0.47380000
H        4.52230000       1.03890000       0.94750000
H        4.64410000      -0.17010000      -0.34340000
