22
Properties=species:S:1:pos:R:3 gdb_97460=T pbc="F F F"
C       -0.09680000       1.37760000      -0.03330000
N        0.08070000      -0.05390000       0.08600000
C        0.53130000      -0.66450000      -0.91720000
O        0.71020000      -1.99900000      -0.88970000
C        1.29440000      -2.57640000      -2.06020000
C        1.24690000      -4.08890000      -1.90710000
C        1.81880000      -4.81790000      -3.12930000
C        1.81230000      -6.33530000      -2.95100000
O        1.14500000      -4.43210000      -4.32790000
H        0.48840000       1.88760000       0.74070000
H        0.19750000       1.78720000      -1.01400000
H       -1.14750000       1.63540000       0.14350000
H        0.80300000      -0.18650000      -1.87260000
H        0.74360000      -2.27000000      -2.95690000
H        2.33310000      -2.23240000      -2.16640000
H        1.80260000      -4.37920000      -1.00830000
H        0.20530000      -4.39770000      -1.74650000
H        2.85270000      -4.48430000      -3.28780000
H        2.41710000      -6.63680000      -2.09000000
H        0.79150000      -6.70190000      -2.78440000
H        2.21000000      -6.82280000      -3.84490000
H        0.25110000      -4.79100000      -4.28770000
