19
Properties=species:S:1:pos:R:3 gdb_6778=T pbc="F F F"
C        0.03560000       1.53370000      -0.07670000
C        0.00600000       0.01510000      -0.03310000
O        0.67720000      -0.48240000      -1.17230000
C        0.70700000      -1.89250000      -1.22500000
C        1.45840000      -2.29280000      -2.48650000
C        1.57760000      -3.80630000      -2.62490000
N        2.09050000      -4.23050000      -3.81800000
O        1.23920000      -4.58210000      -1.75110000
H        1.06710000       1.89750000      -0.07920000
H       -0.45880000       1.90140000      -0.98040000
H       -0.47800000       1.95090000       0.79470000
H        0.49080000      -0.35560000       0.88610000
H       -1.03470000      -0.35130000      -0.01460000
H        1.20590000      -2.31330000      -0.33960000
H       -0.31260000      -2.30790000      -1.24100000
H        0.95800000      -1.87380000      -3.36730000
H        2.46330000      -1.85270000      -2.46580000
H        2.44720000      -3.59060000      -4.50570000
H        2.26600000      -5.21480000      -3.93580000
