22
Properties=species:S:1:pos:R:3 gdb_64338=T pbc="F F F"
C        0.02400000       1.53990000       0.01250000
C       -0.05130000       0.00650000      -0.00650000
C       -1.52620000      -0.43380000      -0.00200000
C        0.67170000      -0.52940000      -1.26920000
N        0.81240000      -1.98140000      -1.34470000
C        1.48590000      -2.54810000      -0.17170000
C        0.88560000      -2.07740000       1.15390000
O        0.60310000      -2.83780000       2.05140000
C        0.67150000      -0.57240000       1.23990000
H        1.06310000       1.88660000      -0.01370000
H       -0.49450000       1.96970000      -0.85190000
H       -0.44210000       1.94710000       0.91600000
H       -2.04980000      -0.05720000      -0.88760000
H       -1.63350000      -1.52370000       0.01530000
H       -2.04400000      -0.04800000       0.88220000
H        0.14570000      -0.18810000      -2.16840000
H        1.68140000      -0.09610000      -1.30970000
H       -0.09940000      -2.41340000      -1.45100000
H        1.45630000      -3.63950000      -0.20960000
H        2.54210000      -2.23980000      -0.20000000
H        1.66750000      -0.11100000       1.31280000
H        0.13290000      -0.34450000       2.16450000
