17
Properties=species:S:1:pos:R:3 gdb_3977=T pbc="F F F"
C       -0.28860000       1.53900000      -0.09600000
C        0.00830000       0.04760000      -0.00610000
O       -1.16480000      -0.72910000      -0.13670000
C        1.22970000      -0.40980000      -0.89280000
C        2.02200000      -0.52590000       0.38900000
C        0.80160000      -0.37070000       1.26970000
N        3.27250000      -0.60540000       0.56910000
O        3.58020000      -0.62780000       1.94460000
H        0.61800000       2.13340000       0.05430000
H       -0.69190000       1.79600000      -1.08370000
H       -1.02330000       1.82640000       0.66230000
H       -1.63290000      -0.43840000      -0.92710000
H        1.02980000      -1.38180000      -1.35510000
H        1.60060000       0.28520000      -1.65070000
H        0.87060000       0.35250000       2.08570000
H        0.43890000      -1.32400000       1.66610000
H        4.54220000      -0.67180000       1.93470000
