19
Properties=species:S:1:pos:R:3 gdb_89421=T pbc="F F F"
C        0.01080000       1.50910000       0.01490000
C       -0.00380000       0.00080000       0.07200000
C       -1.16770000      -0.70240000      -0.60070000
C       -1.02530000      -2.23700000      -0.60430000
O       -0.09440000      -2.66820000      -1.59380000
C       -0.64340000      -2.76100000       0.76430000
C        0.14230000      -2.05760000       1.58230000
C        0.65010000      -0.72310000       1.18420000
O        1.27680000      -0.62630000      -0.12860000
H        0.88450000       1.90870000       0.53590000
H        0.04560000       1.85230000      -1.02480000
H       -0.89230000       1.92340000       0.47520000
H       -2.09140000      -0.41430000      -0.08260000
H       -1.25730000      -0.36820000      -1.64040000
H       -1.98220000      -2.67370000      -0.90770000
H        0.74540000      -2.25600000      -1.34490000
H       -0.98350000      -3.75480000       1.03910000
H        0.44280000      -2.44190000       2.55240000
H        1.17470000      -0.14540000       1.94240000
