18
Properties=species:S:1:pos:R:3 gdb_39843=T pbc="F F F"
C       -0.06890000       1.45000000       0.02800000
C        1.30840000       0.83220000       0.02330000
C        1.94470000       0.59920000       1.38090000
O        1.12900000       0.98090000       2.49800000
C        1.16700000      -0.40730000       2.11780000
C        0.01480000      -0.84890000       1.25040000
C       -0.42290000      -2.26830000       1.29740000
N       -1.29220000      -1.20770000       1.82810000
C        0.07210000      -0.04930000      -0.03490000
H       -0.41230000       1.90260000       0.94920000
H       -0.39010000       1.94570000      -0.88160000
H        1.96450000       0.96340000      -0.82850000
H        3.01320000       0.74160000       1.51510000
H        1.57640000      -1.07960000       2.86970000
H       -0.78620000      -2.74530000       0.39080000
H        0.07860000      -2.94110000       1.98990000
H       -1.24300000      -1.18410000       2.84420000
H       -0.21770000      -0.55170000      -0.95090000
