20
Properties=species:S:1:pos:R:3 gdb_95491=T pbc="F F F"
C       -0.37300000       1.31590000      -0.03250000
N        0.03000000      -0.08400000      -0.04270000
C        0.83890000      -0.43670000      -1.20630000
C        0.47750000      -1.81310000      -1.76120000
C        0.59630000      -2.97460000      -0.82560000
C        0.78120000      -3.01080000       0.50040000
C        0.92960000      -1.92730000       1.49690000
O        1.27800000      -2.21770000       2.62730000
C        0.66240000      -0.44700000       1.21160000
H        0.47600000       2.01990000       0.05760000
H       -0.91480000       1.55280000      -0.95280000
H       -1.04740000       1.49830000       0.81000000
H        0.66680000       0.30180000      -1.99540000
H        1.91850000      -0.39650000      -0.97330000
H       -0.55780000      -1.78640000      -2.13210000
H        1.09800000      -2.01950000      -2.64500000
H        0.51900000      -3.94170000      -1.32200000
H        0.87250000      -3.98230000       0.97980000
H        1.63740000       0.06390000       1.35340000
H        0.02890000      -0.11080000       2.03860000
