18
Properties=species:S:1:pos:R:3 gdb_34010=T pbc="F F F"
N        0.01860000      -1.13400000      -0.10960000
C        0.00380000       0.02240000      -0.06370000
C       -0.02490000       1.46230000      -0.00690000
C        0.45750000       2.20150000      -1.25630000
C        1.31290000       2.20070000      -0.02310000
C        1.42950000       3.45080000       0.84790000
C        0.56740000       3.37520000       2.12220000
C       -0.83490000       2.90800000       1.81870000
C       -1.10770000       2.04510000       0.84110000
H        0.76150000       1.59900000      -2.10450000
H       -0.07890000       3.11170000      -1.50240000
H        2.18800000       1.56100000      -0.05480000
H        2.47880000       3.61060000       1.11390000
H        1.11840000       4.32840000       0.27080000
H        1.02850000       2.69220000       2.84980000
H        0.54210000       4.35620000       2.60780000
H       -1.64490000       3.29880000       2.42830000
H       -2.12320000       1.71700000       0.64090000
