20
Properties=species:S:1:pos:R:3 gdb_82299=T pbc="F F F"
C       -0.11310000       1.58660000      -0.02760000
C        0.05880000       0.07690000      -0.02290000
O       -1.25410000      -0.48570000      -0.05080000
C        0.89300000      -0.49150000      -1.18550000
N        1.23470000      -1.87860000      -0.77540000
C        2.50610000      -1.96870000      -0.04600000
C        1.24460000      -1.86740000       0.72140000
C        0.80280000      -0.49920000       1.22460000
O        1.93890000       0.26230000       1.61470000
H        0.85480000       2.08970000       0.03780000
H       -0.60920000       1.90770000      -0.94760000
H       -0.74120000       1.90080000       0.81280000
H       -1.16680000      -1.41960000      -0.27500000
H        0.30700000      -0.51630000      -2.10870000
H        1.79000000       0.11340000      -1.36090000
H        3.01120000      -2.92810000      -0.11870000
H        3.16030000      -1.10180000      -0.04970000
H        0.83250000      -2.74880000       1.20290000
H        0.08950000      -0.59470000       2.05260000
H        1.62330000       1.09030000       1.99040000
