25
Properties=species:S:1:pos:R:3 gdb_102051=T pbc="F F F"
C        0.02000000       1.61080000       0.07290000
C        0.02160000       0.09800000      -0.17600000
C       -1.38240000      -0.53760000      -0.03950000
C       -2.21060000      -0.08210000      -1.22650000
O       -3.17970000       0.63160000      -1.16590000
C       -1.39000000      -2.09980000       0.10980000
C       -0.80580000      -2.47790000       1.48450000
C       -2.84850000      -2.59830000       0.05510000
C       -0.57210000      -2.79790000      -0.99440000
H        1.02120000       2.03010000      -0.06460000
H       -0.65940000       2.13280000      -0.60850000
H       -0.30290000       1.84010000       1.09390000
H        0.41910000      -0.10730000      -1.17830000
H        0.71000000      -0.38330000       0.52570000
H       -1.87540000      -0.12130000       0.84750000
H       -1.83370000      -0.43710000      -2.21550000
H       -1.37050000      -2.00770000       2.29670000
H       -0.85430000      -3.56260000       1.62950000
H        0.24240000      -2.18320000       1.58760000
H       -3.30700000      -2.41900000      -0.92300000
H       -2.89290000      -3.67540000       0.24740000
H       -3.46780000      -2.09610000       0.80590000
H        0.48220000      -2.50720000      -0.96630000
H       -0.61680000      -3.88420000      -0.86150000
H       -0.95590000      -2.57800000      -1.99560000
