19
Properties=species:S:1:pos:R:3 gdb_75446=T pbc="F F F"
C        0.32890000       1.47330000       0.19340000
C        0.09730000      -0.00040000       0.01390000
C       -0.08070000      -0.57210000      -1.17790000
C       -0.35520000      -2.03990000      -1.35280000
O       -0.65610000      -2.70260000      -0.13610000
C        0.20900000      -2.32720000       0.91690000
C        0.06570000      -0.84460000       1.26750000
C       -0.09170000      -3.25820000       2.08030000
O        0.15540000      -3.00070000       3.22920000
H        1.29430000       1.66640000       0.67830000
H        0.31240000       2.00500000      -0.76170000
H       -0.43770000       1.91520000       0.84300000
H       -0.03540000       0.01820000      -2.09010000
H       -1.22600000      -2.19440000      -2.00080000
H        0.50150000      -2.53140000      -1.85050000
H        1.26010000      -2.52380000       0.62630000
H        0.87100000      -0.55660000       1.95270000
H       -0.87010000      -0.67990000       1.81820000
H       -0.55700000      -4.21920000       1.76910000
