12
Properties=species:S:1:pos:R:3 gdb_129082=T pbc="F F F"
N       -0.12000000       1.31190000       0.00800000
C       -0.01460000       0.04090000       0.00100000
C       -1.22710000      -0.78310000       0.00300000
N       -1.25830000      -2.06200000      -0.00330000
O       -0.00090000      -2.70300000      -0.01310000
C        1.12560000      -1.94200000      -0.01500000
N        1.19700000      -0.66240000      -0.00880000
C        2.29260000      -2.76220000      -0.02510000
C        3.27090000      -3.45930000      -0.03360000
H        0.81530000       1.72710000       0.00530000
H       -2.19780000      -0.29640000       0.01050000
H        4.14240000      -4.06830000      -0.04110000
