16
Properties=species:S:1:pos:R:3 gdb_129635=T pbc="F F F"
N        0.25020000       1.43910000       0.32540000
C        0.05360000       0.09400000       0.01890000
C       -1.08890000      -0.61690000      -0.21380000
C       -2.53620000      -0.28020000      -0.19360000
C       -3.22130000      -0.50080000      -1.54710000
O       -4.57970000      -0.13640000      -1.38010000
O       -0.71370000      -1.87360000      -0.52640000
N        0.69040000      -1.91360000      -0.50180000
N        1.10890000      -0.76450000      -0.17470000
H        1.22250000       1.62000000       0.54060000
H       -0.33650000       1.77310000       1.07900000
H       -3.06330000      -0.87860000       0.55910000
H       -2.65280000       0.77010000       0.09050000
H       -2.72480000       0.11320000      -2.31380000
H       -3.11360000      -1.55430000      -1.84280000
H       -5.03670000      -0.28200000      -2.21340000
