15
Properties=species:S:1:pos:R:3 gdb_128224=T pbc="F F F"
C       -0.10170000       1.42770000       0.00780000
N       -0.04540000      -0.02910000       0.00950000
C        0.63650000      -0.63380000       1.03890000
C        1.24420000      -0.13500000       2.16420000
N        1.73410000      -1.18730000       2.89840000
N        1.48740000      -2.30190000       2.32040000
N        0.78670000      -2.00190000       1.15370000
C        0.25130000      -3.00070000       0.32840000
O        0.44040000      -4.17360000       0.46350000
H        0.89060000       1.89780000      -0.04520000
H       -0.69430000       1.75470000      -0.84850000
H       -0.59970000       1.77130000       0.91870000
H        0.12190000      -0.42750000      -0.90320000
H        1.36640000       0.88500000       2.48530000
H       -0.38530000      -2.56390000      -0.46270000
