23
Properties=species:S:1:pos:R:3 gdb_112700=T pbc="F F F"
C       -0.13830000       1.39070000       0.01930000
O        0.14360000       0.01370000       0.07190000
C        0.68970000      -0.51340000      -1.13280000
C        1.24490000      -1.92220000      -0.84880000
C        0.88700000      -2.79080000      -2.07940000
C        0.51180000      -4.23490000      -1.72440000
C       -0.21700000      -1.98730000      -2.75320000
C       -1.01480000      -2.54300000      -3.89240000
C       -0.31390000      -0.76130000      -2.23510000
H        0.75670000       1.98150000      -0.23590000
H       -0.92590000       1.63480000      -0.70990000
H       -0.48390000       1.68960000       1.01250000
H        1.48090000       0.17610000      -1.47920000
H        2.31320000      -1.92160000      -0.61870000
H        0.71670000      -2.29600000       0.03460000
H        1.74780000      -2.83120000      -2.76530000
H       -0.37010000      -4.26050000      -1.07440000
H        0.29270000      -4.82960000      -2.61700000
H        1.33280000      -4.72780000      -1.19320000
H       -1.58510000      -3.42910000      -3.58870000
H       -1.71930000      -1.80580000      -4.28640000
H       -0.36070000      -2.86220000      -4.71440000
H       -0.99970000       0.00330000      -2.58520000
