18
Properties=species:S:1:pos:R:3 gdb_125326=T pbc="F F F"
C        0.10790000       1.50260000       0.12890000
C       -0.01480000       0.02410000      -0.04440000
C        0.45210000      -0.78830000      -1.05390000
N        0.05740000      -2.03750000      -0.70260000
N       -0.61910000      -2.00480000       0.46320000
N       -0.66290000      -0.76410000       0.85990000
C        0.24810000      -3.29940000      -1.35620000
C        0.22550000      -3.40610000      -2.85600000
C        1.51990000      -3.60230000      -2.09940000
H        0.66140000       1.95100000      -0.70010000
H       -0.87820000       1.97550000       0.17660000
H        0.62970000       1.74670000       1.05970000
H        1.00860000      -0.57990000      -1.95180000
H       -0.21470000      -4.08000000      -0.76700000
H       -0.26480000      -4.26850000      -3.29290000
H        0.10500000      -2.48880000      -3.42150000
H        2.26430000      -2.81620000      -2.15920000
H        1.93080000      -4.60140000      -2.00940000
