17
Properties=species:S:1:pos:R:3 gdb_41392=T pbc="F F F"
C       -0.12590000       1.40920000       0.07480000
O        1.34150000       1.45080000      -0.00660000
C        1.36910000       0.16770000      -0.67280000
C        1.93720000       0.04370000      -2.08870000
O        2.39280000      -1.29690000      -1.80890000
C        2.07860000      -1.19390000      -0.39960000
C        0.94280000      -2.16370000       0.04020000
C       -0.29530000      -1.27870000       0.17680000
C       -0.04630000      -0.05620000      -0.28050000
H       -0.49980000       1.65860000       1.07230000
H       -0.56950000       2.08080000      -0.66940000
H        1.23770000       0.08690000      -2.93160000
H        2.77390000       0.73260000      -2.26620000
H        2.97800000      -1.24440000       0.22180000
H        0.84940000      -2.96430000      -0.70240000
H        1.15440000      -2.64540000       1.00290000
H       -1.17890000      -1.60490000       0.71390000
