15
Properties=species:S:1:pos:R:3 gdb_32047=T pbc="F F F"
C        0.05020000       1.39800000       0.00670000
O       -0.03880000      -0.03410000       0.00370000
C       -1.26570000      -0.55400000       0.01160000
N       -2.33820000       0.17780000       0.02160000
C       -3.51980000      -0.51920000       0.02870000
C       -3.63260000      -1.87340000       0.02600000
C       -2.44490000      -2.70050000       0.01500000
O       -2.36120000      -3.91190000       0.01100000
N       -1.26550000      -1.90920000       0.00810000
H        1.11770000       1.61730000      -0.00120000
H       -0.43720000       1.81450000      -0.87740000
H       -0.42300000       1.80990000       0.90060000
H       -4.41020000       0.10350000       0.03690000
H       -4.59270000      -2.37120000       0.03180000
H       -0.38490000      -2.40740000       0.00010000
