19
Properties=species:S:1:pos:R:3 gdb_97713=T pbc="F F F"
O       -0.03080000       1.44040000       0.01160000
C       -0.03240000       0.01690000       0.00220000
C       -1.40360000      -0.47390000       0.01270000
C       -2.52830000      -0.90660000       0.02110000
C       -3.87060000      -1.41300000       0.03110000
C       -4.99410000      -1.17090000      -1.03430000
C       -5.63730000      -2.08720000       0.04410000
C       -4.32120000      -2.91430000       0.03020000
C       -4.97560000      -1.17770000       1.11710000
H        0.88900000       1.72460000       0.00430000
H        0.48300000      -0.37510000      -0.89030000
H        0.50080000      -0.38680000       0.87890000
H       -5.37280000      -0.14830000      -1.10730000
H       -4.82300000      -1.61000000      -2.02060000
H       -6.65490000      -2.47560000       0.05160000
H       -4.10080000      -3.48120000      -0.87810000
H       -4.08540000      -3.48680000       0.93110000
H       -4.78770000      -1.62300000       2.09750000
H       -5.35300000      -0.15560000       1.20300000
