15
Properties=species:S:1:pos:R:3 gdb_131759=T pbc="F F F"
O        0.16530000       1.34800000      -0.13360000
C        0.03820000      -0.04890000      -0.12360000
C       -1.38210000      -0.54010000       0.00860000
N       -2.27290000       0.38370000       0.08660000
O       -3.61190000       0.02040000       0.20950000
C       -3.93720000      -1.28500000       0.24360000
C       -3.05720000      -2.29500000       0.16690000
C       -1.64640000      -1.99390000       0.03720000
N       -0.64670000      -2.79530000      -0.05160000
H       -0.72330000       1.72000000      -0.06420000
H        0.45320000      -0.48990000      -1.04210000
H        0.61660000      -0.48990000       0.70130000
H       -5.01060000      -1.40020000       0.34180000
H       -3.40550000      -3.32040000       0.20220000
H       -0.95960000      -3.76800000      -0.02010000
