16
Properties=species:S:1:pos:R:3 gdb_48307=T pbc="F F F"
O       -0.24200000      -0.00920000      -0.00060000
C       -0.08360000       1.17800000      -0.01230000
N        1.14410000       1.85900000      -0.01150000
C        1.12470000       3.32090000       0.03170000
C        1.13040000       3.87290000       1.47400000
C        1.11080000       5.32860000       1.49420000
C        1.09420000       6.52960000       1.46440000
C        2.38950000       1.21150000      -0.03510000
O        2.58010000       0.02910000      -0.02670000
H       -0.92310000       1.90240000      -0.03410000
H        1.99190000       3.70240000      -0.51280000
H        0.23760000       3.67870000      -0.49670000
H        0.26300000       3.47360000       2.01440000
H        2.01800000       3.49730000       1.99830000
H        1.07970000       7.59150000       1.45860000
H        3.20850000       1.95840000      -0.07230000
