17
Properties=species:S:1:pos:R:3 gdb_52633=T pbc="F F F"
C        0.21440000       1.53950000       0.16330000
C        0.08920000       0.09090000       0.10450000
C       -0.02970000      -1.10730000       0.04780000
C       -0.11850000      -2.56450000      -0.01010000
C       -1.56390000      -3.06090000      -0.22060000
C        0.81740000      -3.05900000      -1.13210000
O        0.45180000      -3.73060000      -2.05610000
C        0.39990000      -3.11570000       1.33200000
O        1.26470000      -3.94310000       1.43100000
H        1.10490000       1.83790000       0.72680000
H        0.29530000       1.96830000      -0.84130000
H       -0.65660000       1.99150000       0.64950000
H       -1.96920000      -2.63710000      -1.14100000
H       -1.57740000      -4.14960000      -0.30780000
H       -2.19870000      -2.75390000       0.61470000
H        1.86610000      -2.71840000      -1.02340000
H       -0.11040000      -2.67880000       2.21750000
