20
Properties=species:S:1:pos:R:3 gdb_56019=T pbc="F F F"
C        0.13730000       1.36780000      -0.49080000
C        0.18640000      -0.07230000      -0.04760000
N        0.49610000      -0.54170000       1.09210000
O       -0.16240000      -0.88280000      -1.06830000
C       -0.20370000      -2.29780000      -0.79440000
C       -0.86610000      -2.97150000      -2.00030000
C        0.34340000      -3.31930000      -2.87230000
O        1.33880000      -3.72480000      -1.94490000
C        1.21540000      -2.91540000      -0.77710000
H        0.41560000       2.03830000       0.32360000
H        0.81820000       1.52470000      -1.33290000
H       -0.86890000       1.62110000      -0.83810000
H        0.71820000       0.21000000       1.74040000
H       -0.73040000      -2.44690000       0.14830000
H       -1.36940000      -3.88760000      -1.67770000
H       -1.59540000      -2.31610000      -2.47970000
H        0.17240000      -4.14620000      -3.56650000
H        0.67060000      -2.43940000      -3.44980000
H        1.96520000      -2.11490000      -0.77100000
H        1.38210000      -3.54940000       0.09810000
