19
Properties=species:S:1:pos:R:3 gdb_65969=T pbc="F F F"
C       -0.13880000       1.64550000       0.12680000
C        0.06310000       0.14700000       0.00200000
O        1.20120000      -0.21160000      -0.82130000
C        1.84370000      -0.93650000       0.25270000
C        0.69500000      -0.60540000       1.19550000
C        0.73870000      -0.19400000       2.63350000
C        0.03340000      -1.46760000       2.22760000
C       -1.18770000      -0.56450000      -0.49560000
O       -2.30520000      -0.29660000      -0.13460000
H        0.72020000       2.11180000       0.61460000
H       -0.26140000       2.08920000      -0.86610000
H       -1.04460000       1.84960000       0.70430000
H        1.97350000      -1.99870000       0.00830000
H        2.81920000      -0.50450000       0.50990000
H        1.69050000      -0.27360000       3.14990000
H        0.13090000       0.64920000       2.94430000
H       -1.05130000      -1.47850000       2.25910000
H        0.50080000      -2.41680000       2.46970000
H       -0.97120000      -1.39280000      -1.20700000
