16
Properties=species:S:1:pos:R:3 gdb_23093=T pbc="F F F"
O       -0.16760000       1.34650000       0.04430000
N       -0.01060000      -0.04800000      -0.00470000
C       -1.13630000      -0.63330000      -0.01880000
C       -2.51810000      -0.01610000       0.03050000
C       -3.41500000      -1.22690000       0.06130000
C       -2.74020000      -2.37290000       0.01910000
C       -1.23390000      -2.16530000      -0.05120000
C       -0.62790000      -2.77940000      -1.23110000
C       -0.15100000      -3.30330000      -2.20150000
H        0.74520000       1.65400000       0.04570000
H       -2.62530000       0.63170000       0.91040000
H       -2.69570000       0.63390000      -0.83680000
H       -4.49470000      -1.14620000       0.11320000
H       -3.16690000      -3.36790000       0.01790000
H       -0.74360000      -2.58050000       0.84140000
H        0.28110000      -3.75550000      -3.05950000
