18
Properties=species:S:1:pos:R:3 gdb_66100=T pbc="F F F"
C       -0.00100000       1.51810000       0.02400000
C        0.00430000      -0.02030000      -0.00800000
C        0.81460000      -0.60110000      -1.21510000
C        1.39200000      -1.95120000      -0.73660000
C        1.54650000      -1.76640000       0.75860000
O        2.13720000      -0.50310000       1.12280000
C        0.72050000      -0.64140000       1.20200000
C       -1.37240000      -0.53390000      -0.02600000
N       -2.45310000      -0.94500000      -0.03070000
H        1.02710000       1.87240000       0.13390000
H       -0.41940000       1.92640000      -0.89980000
H       -0.59390000       1.89490000       0.86190000
H        0.19770000      -0.69320000      -2.11040000
H        1.62610000       0.09520000      -1.43410000
H        0.69190000      -2.77450000      -0.91970000
H        2.33350000      -2.19870000      -1.23530000
H        1.79790000      -2.59870000       1.40980000
H        0.27890000      -0.55840000       2.19150000
