18
Properties=species:S:1:pos:R:3 gdb_17948=T pbc="F F F"
O       -0.11110000       1.40790000      -0.05880000
C        0.02430000       0.03500000      -0.02590000
C       -1.05230000      -1.01520000       0.05440000
C       -0.45240000      -1.77830000      -1.12650000
C        0.82390000      -0.87670000      -1.01380000
C        1.90490000      -1.54790000      -0.15570000
C        1.18960000      -1.81600000       1.20090000
C       -0.00580000      -0.86320000       1.17570000
H        0.62800000       1.79890000       0.42020000
H       -2.10570000      -0.89580000       0.27980000
H       -0.30110000      -2.85860000      -1.01830000
H       -1.00660000      -1.58950000      -2.04940000
H        1.17480000      -0.42720000      -1.94270000
H        2.30000000      -2.46140000      -0.61150000
H        2.74930000      -0.86210000      -0.01410000
H        0.87410000      -2.86120000       1.29010000
H        1.84460000      -1.61200000       2.05370000
H       -0.40690000      -0.46060000       2.09970000
