14
Properties=species:S:1:pos:R:3 gdb_66407=T pbc="F F F"
O        0.23680000       1.39000000       0.30900000
C        0.09800000       0.05420000       0.08590000
C       -1.14460000      -0.91730000      -0.01890000
C       -0.43140000      -1.77690000      -1.06870000
C        0.68170000      -0.69690000      -1.07320000
O        1.48220000      -0.34140000      -1.89230000
C       -0.30920000      -0.84050000       1.23510000
C        0.48590000      -1.94670000       1.71360000
N        1.11390000      -2.84580000       2.08020000
H        0.50690000       1.79740000      -0.52500000
H       -2.19360000      -0.65500000      -0.01290000
H       -0.14580000      -2.78460000      -0.75840000
H       -0.93220000      -1.81550000      -2.03870000
H       -0.75950000      -0.25040000       2.02950000
