17
Properties=species:S:1:pos:R:3 gdb_34089=T pbc="F F F"
C        0.09820000      -1.16340000       0.00780000
C        0.05730000       0.03710000      -0.01030000
C       -0.03780000       1.47870000      -0.02660000
C       -1.01240000       2.16910000       1.00240000
C       -1.47650000       3.08090000      -0.13350000
C       -0.28060000       3.57090000      -0.93550000
C        1.10210000       3.45550000      -0.30700000
O        1.25900000       2.07140000       0.02670000
C       -0.81420000       2.19410000      -1.17580000
H        0.14640000      -2.22420000       0.02270000
H       -1.80120000       1.48340000       1.31860000
H       -0.53080000       2.60960000       1.88090000
H       -2.43390000       3.58360000      -0.19400000
H       -0.46700000       4.34510000      -1.67020000
H        1.89440000       3.73350000      -1.01130000
H        1.20960000       4.07610000       0.59300000
H       -1.16060000       1.77390000      -2.10920000
