27
Properties=species:S:1:pos:R:3 gdb_118682=T pbc="F F F"
C       -0.72090000       0.43160000       3.53070000
C       -0.63990000      -0.91290000       2.80220000
C       -1.59230000      -0.99090000       1.59790000
C       -1.57200000      -2.32000000       0.85250000
C       -0.23720000      -2.64080000       0.19690000
C       -2.37590000      -3.50810000       1.35980000
C       -3.19370000      -3.50060000       2.63540000
C       -2.80880000      -2.78410000       0.09730000
C       -4.09570000      -1.99080000      -0.00430000
H       -0.03190000       0.46900000       4.38040000
H       -0.46750000       1.26070000       2.86040000
H       -1.73120000       0.61610000       3.91340000
H        0.39200000      -1.08170000       2.47320000
H       -0.87320000      -1.72590000       3.50090000
H       -2.60390000      -0.75890000       1.94540000
H       -1.33440000      -0.18940000       0.88990000
H        0.56300000      -2.76920000       0.93430000
H       -0.29670000      -3.56750000      -0.38260000
H        0.06930000      -1.84050000      -0.48840000
H       -1.89990000      -4.47100000       1.18340000
H       -3.65140000      -2.53110000       2.84490000
H       -4.00360000      -4.23740000       2.58180000
H       -2.57270000      -3.76110000       3.49990000
H       -2.58370000      -3.31650000      -0.82510000
H       -4.38130000      -1.51080000       0.93410000
H       -4.01440000      -1.20390000      -0.76300000
H       -4.92580000      -2.64380000      -0.29720000
