21
Properties=species:S:1:pos:R:3 gdb_121518=T pbc="F F F"
C       -0.08330000       1.55470000      -0.05240000
C        0.06290000       0.03090000      -0.03650000
C        0.73390000      -0.48870000       1.23830000
C        0.87710000      -2.02420000       1.24590000
C        1.51260000      -2.54340000       2.44820000
C        2.04330000      -2.93700000       3.45950000
C        2.67960000      -3.41760000       4.67040000
C        2.85920000      -4.92060000       4.75870000
O        3.04030000      -2.66090000       5.54760000
H        0.89310000       2.04640000       0.01720000
H       -0.56490000       1.89850000      -0.97280000
H       -0.68890000       1.90270000       0.79140000
H       -0.92620000      -0.43460000      -0.14170000
H        0.64450000      -0.29190000      -0.91040000
H        1.72740000      -0.03860000       1.34960000
H        0.15690000      -0.18120000       2.11820000
H       -0.11220000      -2.48930000       1.13610000
H        1.45510000      -2.34690000       0.36910000
H        1.88690000      -5.42020000       4.68830000
H        3.46250000      -5.27730000       3.91690000
H        3.34410000      -5.17670000       5.70190000
