15
Properties=species:S:1:pos:R:3 gdb_19714=T pbc="F F F"
N       -0.03580000       1.49450000       0.00520000
C        1.27670000       0.81200000      -0.00160000
C        0.03640000       0.01690000       0.00640000
C        0.07970000      -0.67460000      -1.40220000
O        1.49800000      -0.91370000      -1.51350000
C        1.87400000       0.47560000      -1.41390000
C        0.98900000       1.10420000      -2.48490000
C       -0.13190000       0.38570000      -2.47760000
H       -0.23270000       1.81130000       0.95440000
H        1.93960000       0.89020000       0.85150000
H       -0.30350000      -0.54780000       0.86610000
H       -0.47530000      -1.60820000      -1.47730000
H        2.95320000       0.58960000      -1.49960000
H        1.20690000       2.01320000      -3.02680000
H       -1.05400000       0.56390000      -3.01200000
