19
Properties=species:S:1:pos:R:3 gdb_97818=T pbc="F F F"
O        0.10840000       1.28070000       0.72570000
C        0.03240000       0.13530000      -0.11670000
C       -1.32620000      -0.39040000      -0.11330000
C       -2.44480000      -0.83830000      -0.11720000
C       -3.79100000      -1.38170000      -0.13580000
C       -4.53390000      -1.53720000      -1.52130000
C       -4.71600000      -3.03050000      -1.23520000
C       -3.37710000      -3.68330000      -1.03540000
C       -3.97540000      -2.89790000       0.09510000
H        1.01750000       1.59600000       0.69680000
H        0.32050000       0.38490000      -1.15150000
H        0.72460000      -0.65300000       0.22270000
H       -4.42190000      -0.81100000       0.55210000
H       -5.46720000      -0.97120000      -1.54140000
H       -3.94580000      -1.28560000      -2.40840000
H       -5.60630000      -3.60470000      -1.45970000
H       -3.39790000      -4.76070000      -0.90620000
H       -2.49760000      -3.31230000      -1.55660000
H       -4.19280000      -3.34520000       1.05720000
