21
Properties=species:S:1:pos:R:3 gdb_101240=T pbc="F F F"
O        0.06760000       1.41790000      -0.09270000
C        0.06030000       0.01650000       0.06610000
C       -1.36610000      -0.53520000      -0.01120000
O       -1.98430000      -0.05020000      -1.21200000
C       -1.44070000      -2.04800000       0.09280000
C       -1.13630000      -2.72150000       1.46330000
C       -2.28710000      -3.72050000       1.16370000
O       -3.10330000      -4.19410000       2.20120000
C       -2.84410000      -2.71610000       0.12050000
H       -0.57950000       1.59580000      -0.78820000
H        0.67770000      -0.48180000      -0.70540000
H        0.51010000      -0.21020000       1.03890000
H       -1.95560000      -0.08030000       0.79480000
H       -1.60150000      -0.53430000      -1.95360000
H       -0.81910000      -2.49720000      -0.69340000
H       -0.13570000      -3.11860000       1.64660000
H       -1.40890000      -2.05690000       2.29240000
H       -1.89750000      -4.61550000       0.66890000
H       -3.48820000      -3.43340000       2.64920000
H       -3.58040000      -2.04480000       0.57830000
H       -3.26150000      -3.10840000      -0.80890000
