18
Properties=species:S:1:pos:R:3 gdb_6826=T pbc="F F F"
C       -0.23740000       1.54100000       0.17130000
C        0.00750000       0.04040000       0.06730000
C       -1.22870000      -0.70410000      -0.41720000
O        1.14760000      -0.23680000      -0.79550000
C        1.87160000      -0.87320000       0.26770000
C        0.72760000      -0.66130000       1.28180000
C        1.04850000       0.17730000       2.48840000
O        0.60120000      -0.01660000       3.59020000
H        0.67470000       2.07910000       0.43960000
H       -0.57770000       1.92290000      -0.79620000
H       -1.00810000       1.76220000       0.91720000
H       -1.53320000      -0.32220000      -1.39700000
H       -1.02540000      -1.77390000      -0.51510000
H       -2.06220000      -0.56940000       0.28040000
H        2.10880000      -1.92000000       0.04650000
H        2.80440000      -0.34330000       0.50520000
H        0.21860000      -1.56710000       1.61320000
H        1.75650000       1.01730000       2.30040000
