19
Properties=species:S:1:pos:R:3 gdb_22096=T pbc="F F F"
C        0.76550000       0.35190000      -0.45990000
N       -0.36920000      -0.26850000       0.20750000
C       -0.10330000      -0.49630000       1.61800000
C       -1.61030000       0.46520000      -0.00260000
C       -2.10270000       0.35600000      -1.43000000
N       -2.21030000       1.45770000      -2.08680000
O       -2.69200000       1.27160000      -3.37360000
C       -2.42690000      -0.92990000      -1.94820000
C       -2.71200000      -2.02650000      -2.35410000
H        1.64420000      -0.29300000      -0.36250000
H        0.55280000       0.48000000      -1.52410000
H        1.02040000       1.34530000      -0.04280000
H        0.06020000       0.43730000       2.19070000
H       -0.94140000      -1.03200000       2.07470000
H        0.79330000      -1.11470000       1.72600000
H       -2.37100000       0.02940000       0.65570000
H       -1.53080000       1.53930000       0.24350000
H       -2.71320000       2.17150000      -3.71820000
H       -2.95770000      -2.99280000      -2.72020000
