21
Properties=species:S:1:pos:R:3 gdb_60574=T pbc="F F F"
C        0.03940000       1.47840000      -0.32410000
C       -0.05430000       0.03070000       0.09990000
N        1.18950000      -0.75550000       0.08860000
C        0.50160000      -0.52900000       1.36820000
C        1.24700000       0.28870000       2.40590000
O        0.33400000       0.87230000       3.33220000
C        2.20410000      -0.58860000       3.19170000
C        2.62530000      -0.22800000       4.56330000
N        1.71140000      -1.36880000       4.33750000
H        0.95850000       1.94460000       0.03710000
H        0.03990000       1.55380000      -1.41660000
H       -0.81640000       2.05470000       0.04670000
H       -0.95000000      -0.47510000      -0.26060000
H        1.02430000      -1.70030000      -0.24550000
H       -0.04500000      -1.36600000       1.80210000
H        1.83470000       1.06450000       1.89370000
H       -0.35740000       1.31060000       2.82730000
H        2.90030000      -1.12470000       2.55080000
H        3.61820000      -0.49730000       4.91230000
H        2.20980000       0.67680000       4.99490000
H        0.76680000      -1.04780000       4.54370000
