19
Properties=species:S:1:pos:R:3 gdb_26417=T pbc="F F F"
C       -0.03050000       1.53830000       0.14820000
C       -0.13460000       0.01950000       0.00570000
O       -1.46340000      -0.36840000      -0.34270000
C        0.78000000      -0.52070000      -1.10270000
C        0.87530000      -2.01660000      -1.14690000
C        2.00280000      -2.76500000      -1.00420000
O        1.72740000      -4.09340000      -1.10410000
C        0.38740000      -4.19580000      -1.31560000
C       -0.18670000      -2.96760000      -1.35270000
H        0.98080000       1.84100000       0.43950000
H       -0.28510000       2.02930000      -0.79650000
H       -0.72080000       1.90370000       0.91710000
H        0.15730000      -0.45540000       0.95600000
H       -2.04490000      -0.12930000       0.38540000
H        0.39740000      -0.13260000      -2.05590000
H        1.78100000      -0.09760000      -0.96570000
H        3.03800000      -2.51250000      -0.83950000
H        0.00730000      -5.19920000      -1.41570000
H       -1.22960000      -2.73560000      -1.49050000
