10
Properties=species:S:1:pos:R:3 gdb_130848=T pbc="F F F"
O       -0.00170000      -0.07210000      -0.00240000
C       -0.01530000       1.12980000       0.00840000
C        1.21510000       1.95750000       0.00230000
C        1.38330000       3.31980000       0.01210000
N        2.74600000       3.55310000      -0.00010000
N        3.36810000       2.46520000      -0.01620000
O        2.41540000       1.39690000      -0.01620000
C        0.41130000       4.34750000       0.03160000
N       -0.40520000       5.16690000       0.04770000
H       -0.94610000       1.72790000       0.02390000
