21
Properties=species:S:1:pos:R:3 gdb_118767=T pbc="F F F"
O        0.28060000       0.45180000      -0.43980000
C       -0.42110000       0.15170000       0.77480000
C       -1.67530000      -0.64330000       0.43040000
C       -1.39990000      -2.02470000      -0.17930000
O       -0.73260000      -1.93290000      -1.41570000
C       -0.81700000      -3.06140000       0.84700000
C       -2.23400000      -3.64490000       1.03040000
O       -2.80960000      -3.10550000       2.21410000
C       -2.66860000      -2.91640000      -0.26990000
H        1.15500000       0.78420000      -0.21760000
H        0.22100000      -0.42700000       1.45440000
H       -0.69700000       1.08310000       1.28950000
H       -2.26170000      -0.77390000       1.34500000
H       -2.28010000      -0.06170000      -0.27680000
H       -0.14630000      -1.16350000      -1.37160000
H       -0.14910000      -3.75630000       0.33400000
H       -0.34100000      -2.69450000       1.75990000
H       -2.31890000      -4.73870000       1.02580000
H       -3.75470000      -3.28780000       2.18870000
H       -3.64410000      -2.41920000      -0.26130000
H       -2.59910000      -3.56590000      -1.14610000
