19
Properties=species:S:1:pos:R:3 gdb_121331=T pbc="F F F"
C       -0.10590000       1.30240000       0.02390000
O        0.17250000      -0.07720000       0.06580000
C        0.52830000      -0.59980000      -1.18990000
C        0.76900000      -2.09990000      -1.03730000
O       -0.41360000      -2.85100000      -0.81520000
C       -0.81810000      -3.46570000      -2.04230000
C        0.47990000      -3.80510000      -2.77720000
C        1.40980000      -2.69110000      -2.30300000
O        2.43090000      -2.31450000      -2.81390000
H        0.76310000       1.88520000      -0.32060000
H       -0.95490000       1.52760000      -0.64100000
H       -0.36100000       1.61380000       1.03950000
H       -0.26750000      -0.41610000      -1.93260000
H        1.45420000      -0.13720000      -1.56990000
H        1.43520000      -2.24540000      -0.17780000
H       -1.42720000      -4.33490000      -1.78590000
H       -1.43630000      -2.77780000      -2.63940000
H        0.89060000      -4.76160000      -2.43190000
H        0.41270000      -3.83340000      -3.86600000
