17
Properties=species:S:1:pos:R:3 gdb_13872=T pbc="F F F"
C        0.26930000       1.16370000      -0.62200000
C       -0.02730000       0.02460000       0.36110000
O        0.18750000       0.44670000       1.68820000
C       -1.43430000      -0.48590000       0.20650000
N       -2.29500000      -0.47760000       1.14070000
C       -3.52570000      -1.06010000       0.58670000
C       -3.16340000      -1.39380000      -0.88570000
O       -1.77920000      -0.98000000      -1.00540000
H        1.29560000       1.50700000      -0.47180000
H        0.15280000       0.82810000      -1.65590000
H       -0.40600000       2.00470000      -0.43940000
H        0.64580000      -0.81710000       0.12800000
H       -0.64700000       0.30170000       2.15790000
H       -3.81210000      -1.94800000       1.15970000
H       -4.34910000      -0.34260000       0.66310000
H       -3.22090000      -2.45940000      -1.12220000
H       -3.74990000      -0.83450000      -1.61930000
