16
Properties=species:S:1:pos:R:3 gdb_5579=T pbc="F F F"
C        0.17070000       0.68790000       0.67160000
N       -0.37790000       0.33980000      -0.63450000
C        0.35940000      -0.54100000      -1.43400000
C        0.86850000      -1.78420000      -1.11610000
N        0.84960000      -2.62510000       0.01630000
N        1.45540000      -2.22660000      -2.29710000
C        1.26720000      -1.27130000      -3.23560000
N        0.61230000      -0.23540000      -2.74930000
H        0.19700000      -0.19610000       1.31590000
H        1.19010000       1.10490000       0.62980000
H       -0.48510000       1.42050000       1.14980000
H       -0.58820000       1.16420000      -1.18320000
H       -0.08670000      -2.72480000       0.39360000
H        1.45100000      -2.29800000       0.76580000
H        1.90410000      -3.12110000      -2.40240000
H        1.62930000      -1.36640000      -4.24820000
