13
Properties=species:S:1:pos:R:3 gdb_21886=T pbc="F F F"
O       -0.15660000       1.31960000      -0.02700000
C        0.07660000       0.00240000      -0.05070000
N       -0.02230000      -0.68490000      -1.19110000
N        0.21580000      -1.93380000      -0.69480000
C        0.71620000      -3.29920000      -0.94320000
C        0.95880000      -3.35800000       0.62520000
C        0.49340000      -1.90990000       0.60080000
N        0.41300000      -0.68670000       1.09530000
H       -0.02410000       1.60270000       0.88600000
H       -0.02920000      -3.98180000      -1.35690000
H        1.63230000      -3.32760000      -1.53790000
H        0.32680000      -4.06290000       1.16860000
H        2.00270000      -3.50650000       0.90820000
