16
Properties=species:S:1:pos:R:3 gdb_42805=T pbc="F F F"
O       -0.07100000      -0.01600000      -0.28500000
C       -0.05360000       1.14490000      -0.00620000
C       -1.06560000       2.31360000       0.02390000
C       -0.82350000       2.96110000       1.39180000
C        0.75950000       2.95330000       1.39600000
C        1.36370000       2.23840000       2.50700000
C        1.85810000       1.63670000       3.42260000
C        0.99020000       2.28440000       0.01830000
N       -0.02600000       3.03920000      -0.81480000
H       -2.08110000       2.23830000      -0.35940000
H       -1.21740000       3.97800000       1.43070000
H       -1.24200000       2.37800000       2.21360000
H        1.13790000       3.97880000       1.35860000
H        2.29780000       1.10560000       4.23030000
H        2.00910000       2.18990000      -0.34980000
H       -0.03030000       2.64610000      -1.75670000
