17
Properties=species:S:1:pos:R:3 gdb_82477=T pbc="F F F"
O       -0.09120000       1.41520000      -0.06610000
C       -0.01050000       0.00660000      -0.07990000
C       -1.38250000      -0.63860000      -0.35620000
C       -1.78490000       0.02200000      -1.70370000
C       -0.61400000      -0.80280000      -2.26280000
O       -0.31760000      -0.98740000      -3.60030000
C       -0.83560000      -1.89870000      -1.18010000
O        0.56960000      -2.05070000      -0.93570000
C        0.64420000      -0.64830000      -1.32300000
H        0.79580000       1.76090000       0.07330000
H        0.46420000      -0.38420000       0.82810000
H       -2.08830000      -0.73950000       0.46400000
H       -2.73840000      -0.36880000      -2.07570000
H       -1.76460000       1.10930000      -1.76490000
H       -1.12810000      -1.22090000      -4.06510000
H       -1.41610000      -2.81740000      -1.25030000
H        1.62090000      -0.32540000      -1.68290000
