17
Properties=species:S:1:pos:R:3 gdb_133609=T pbc="F F F"
F       -0.37580000      -0.06740000       0.46450000
C       -0.10140000       1.22570000       0.21090000
F        1.23920000       1.34820000       0.20540000
F       -0.53410000       1.49040000      -1.03200000
C       -0.72800000       2.17210000       1.23750000
C       -2.23450000       1.92400000       1.41030000
C       -2.32050000       0.86080000       2.53180000
C       -0.94810000       0.91250000       3.25210000
N       -0.21280000       2.00130000       2.58430000
H       -0.51440000       3.18120000       0.86570000
H       -2.70140000       2.85970000       1.72590000
H       -2.71380000       1.61020000       0.48090000
H       -3.14710000       1.07030000       3.21390000
H       -2.48890000      -0.13200000       2.11100000
H       -1.04760000       1.14080000       4.31880000
H       -0.44030000      -0.05770000       3.17010000
H        0.79260000       1.88460000       2.60870000
