19
Properties=species:S:1:pos:R:3 gdb_112108=T pbc="F F F"
O        0.04770000       1.45990000       0.06110000
C        0.01110000       0.04840000       0.16040000
C       -1.40050000      -0.52910000      -0.12990000
C       -1.90210000      -0.14500000      -1.49640000
C       -2.42060000      -1.00740000      -2.36880000
C       -2.52580000      -2.48510000      -2.09800000
C       -1.46440000      -2.94270000      -1.08160000
C       -1.39290000      -2.03710000       0.13450000
O       -1.29130000      -2.46500000       1.26200000
H       -0.44570000       1.82160000       0.80460000
H        0.72310000      -0.32030000      -0.58550000
H        0.33620000      -0.30340000       1.14820000
H       -2.06170000      -0.10070000       0.63920000
H       -1.83030000       0.91150000      -1.73760000
H       -2.79110000      -0.64800000      -3.32540000
H       -3.53110000      -2.73050000      -1.72630000
H       -2.40960000      -3.05180000      -3.02840000
H       -1.61780000      -3.96970000      -0.74260000
H       -0.47890000      -2.89360000      -1.56720000
