15
Properties=species:S:1:pos:R:3 gdb_124129=T pbc="F F F"
C       -0.14170000       1.46610000      -0.03200000
C       -0.02120000       0.01750000      -0.01600000
C        0.08640000      -1.18430000      -0.00290000
C        0.20130000      -2.58980000       0.01260000
C        1.31050000      -3.42730000       0.00130000
C        0.76360000      -4.72370000       0.02860000
O        1.46840000      -5.87330000       0.02920000
N       -0.56410000      -4.72210000       0.05480000
N       -0.88690000      -3.40950000       0.04450000
H        0.84570000       1.93980000      -0.01510000
H       -0.66210000       1.81370000      -0.93150000
H       -0.69980000       1.82950000       0.83820000
H        2.34660000      -3.13810000      -0.02280000
H        0.82930000      -6.59660000       0.05100000
H       -1.85300000      -3.13280000       0.06000000
