21
Properties=species:S:1:pos:R:3 gdb_98683=T pbc="F F F"
C        0.11190000       1.50590000      -0.05390000
C       -0.08220000      -0.00570000      -0.12630000
C       -1.50800000      -0.45520000       0.16140000
O       -2.38120000       0.33680000       0.45920000
C       -1.75890000      -1.92130000       0.05420000
C       -2.95260000      -2.52810000       0.78750000
C       -2.96640000      -2.46760000      -0.70490000
C       -3.92360000      -1.56810000      -1.44910000
O       -2.63360000      -3.65090000      -1.38770000
H        1.15280000       1.77310000      -0.25680000
H       -0.52480000       2.01600000      -0.78130000
H       -0.15860000       1.88600000       0.93440000
H        0.19910000      -0.40170000      -1.11220000
H        0.57650000      -0.52650000       0.58330000
H       -0.87990000      -2.54860000      -0.04340000
H       -2.79880000      -3.49350000       1.25520000
H       -3.56420000      -1.81590000       1.33150000
H       -4.07410000      -0.62780000      -0.91780000
H       -3.54310000      -1.35570000      -2.45310000
H       -4.89620000      -2.06480000      -1.55490000
H       -3.44120000      -4.16910000      -1.48110000
