14
Properties=species:S:1:pos:R:3 gdb_9952=T pbc="F F F"
O        0.13520000       1.33290000      -0.08440000
C        0.15490000      -0.04090000       0.05520000
C       -0.29030000      -0.71250000       1.32670000
O       -0.73890000       0.01430000       2.41190000
C       -1.21660000      -0.74280000       0.09520000
O       -2.28170000       0.15660000       0.19700000
C       -1.53970000      -1.95610000      -0.65860000
O       -2.64510000      -2.12280000      -1.13370000
H       -0.79180000       1.60540000      -0.13220000
H        0.94660000      -0.52080000      -0.51560000
H        0.20440000      -1.64040000       1.60430000
H       -1.59920000       0.38750000       2.17430000
H       -3.01010000      -0.27280000      -0.28480000
H       -0.72980000      -2.70260000      -0.76950000
