17
Properties=species:S:1:pos:R:3 gdb_106904=T pbc="F F F"
O        0.06720000       1.43310000       0.09510000
C        0.02100000       0.02140000      -0.08710000
C       -1.39590000      -0.47020000      -0.03880000
C       -2.04200000      -1.07990000       1.13720000
N       -1.76650000      -1.95990000      -0.03900000
C       -2.84590000      -1.64380000      -0.96080000
N       -3.71370000      -2.43720000      -1.39590000
C       -2.43440000      -0.17740000      -1.12970000
O       -3.45350000       0.76290000      -0.92050000
H       -0.23610000       1.62170000       0.98960000
H        0.45320000      -0.16260000      -1.07630000
H        0.63900000      -0.51420000       0.64770000
H       -1.41460000      -1.32530000       1.98890000
H       -3.07550000      -0.84650000       1.37690000
H       -4.35040000      -1.95110000      -2.03080000
H       -1.93210000      -0.03120000      -2.09790000
H       -3.08680000       1.64050000      -1.07360000
