17
Properties=species:S:1:pos:R:3 gdb_57584=T pbc="F F F"
C       -0.05170000       1.62680000      -0.09120000
C       -0.03180000       0.08910000      -0.09430000
C        0.66970000      -0.46340000       1.16810000
C       -1.45400000      -0.48080000      -0.11550000
O       -2.44870000       0.17990000       0.01880000
C        0.67430000      -0.40920000      -1.36090000
O        0.07690000      -0.96290000      -2.25970000
C        2.10410000      -0.16010000      -1.45220000
C        3.28640000       0.05140000      -1.53690000
H        0.96570000       2.02580000      -0.06810000
H       -0.56380000       2.01460000      -0.97520000
H       -0.59230000       1.98420000       0.78830000
H        0.18030000      -0.07400000       2.06550000
H        0.63290000      -1.55720000       1.20390000
H        1.71900000      -0.15850000       1.18690000
H       -1.49930000      -1.58520000      -0.22060000
H        4.33080000       0.23000000      -1.62710000
