15
Properties=species:S:1:pos:R:3 gdb_25820=T pbc="F F F"
N       -0.02350000       1.28120000      -0.18350000
C        0.03360000      -0.08260000      -0.03070000
N        1.14990000      -0.70650000       0.05340000
C       -1.29810000      -0.70790000      -0.00640000
N       -2.45960000      -0.13680000       0.00090000
C       -3.38040000      -1.17060000       0.03480000
C       -2.69870000      -2.35350000       0.05090000
N       -3.04620000      -3.68200000       0.16100000
O       -1.37130000      -2.07830000       0.02670000
H        0.82340000       1.77520000       0.04830000
H       -0.89650000       1.72940000       0.04430000
H        0.98830000      -1.70910000       0.11750000
H       -4.44410000      -0.99990000       0.04560000
H       -4.00230000      -3.87260000      -0.10240000
H       -2.40020000      -4.31220000      -0.29570000
