19
Properties=species:S:1:pos:R:3 gdb_65640=T pbc="F F F"
C        0.24300000       1.56880000       0.35130000
C        0.01540000       0.08140000       0.10110000
C        0.86380000      -0.63130000      -0.99600000
C        1.42590000      -1.62660000       0.05100000
C        2.67250000      -1.13000000       0.80200000
O        1.86150000      -0.39110000       1.75450000
C        0.64860000      -0.89130000       1.17440000
C       -1.46220000      -0.21970000      -0.00630000
O       -1.98230000      -0.91860000      -0.83900000
H        1.26990000       1.73690000       0.68360000
H        0.06350000       2.14930000      -0.55940000
H       -0.42520000       1.94920000       1.13280000
H        0.23130000      -1.09630000      -1.75400000
H        1.61350000      -0.00250000      -1.48320000
H        1.34210000      -2.69170000      -0.15610000
H        3.25020000      -1.91140000       1.31030000
H        3.35650000      -0.47920000       0.24380000
H       -0.01290000      -1.34530000       1.91820000
H       -2.06920000       0.24990000       0.80340000
