13
Properties=species:S:1:pos:R:3 gdb_25210=T pbc="F F F"
N       -0.17620000       1.42960000       0.03860000
C       -0.06900000       0.18620000       0.11780000
O        1.18340000      -0.42450000       0.32770000
C        1.34790000      -1.68290000       0.78270000
N        0.57510000      -2.42880000       1.46060000
C       -0.73010000      -2.10200000       1.80420000
N       -1.59240000      -1.42640000       1.14550000
C       -1.21750000      -0.77710000      -0.03660000
N       -1.78860000      -0.87950000      -1.16330000
H        0.71920000       1.89760000       0.18990000
H        2.34940000      -2.02740000       0.53510000
H       -1.05430000      -2.56780000       2.73360000
H       -2.55860000      -1.55160000      -1.09410000
