17
Properties=species:S:1:pos:R:3 gdb_27790=T pbc="F F F"
C        0.01800000       1.49600000      -0.00640000
C       -0.01530000      -0.00810000       0.02590000
C       -1.20950000      -0.70960000      -0.01880000
C       -1.12180000      -2.11310000       0.00400000
N       -2.24200000      -2.90380000      -0.00390000
N        0.05080000      -2.74640000       0.07030000
C        1.13710000      -1.96130000       0.12890000
N        2.33940000      -2.60330000       0.25870000
H        2.35400000      -3.58020000       0.01830000
H        3.15660000      -2.05750000       0.04220000
N        1.17500000      -0.62350000       0.09950000
H        0.61990000       1.84040000      -0.85330000
H       -0.98370000       1.92490000      -0.08510000
H        0.49720000       1.87990000       0.90000000
H       -2.16570000      -0.20360000      -0.07230000
H       -3.09530000      -2.51310000      -0.36720000
H       -2.07880000      -3.87700000      -0.20950000
