15
Properties=species:S:1:pos:R:3 gdb_126790=T pbc="F F F"
C       -0.02370000       1.53880000       0.02360000
C       -0.02650000       0.01160000      -0.02230000
N       -1.38030000      -0.53580000       0.00130000
N       -2.03940000      -0.73090000       1.14140000
C       -3.23330000      -1.16490000       0.74780000
C       -3.24500000      -1.20990000      -0.65810000
N       -2.04620000      -0.79840000      -1.10600000
C       -4.28900000      -1.61300000      -1.53030000
N       -5.16420000      -1.94770000      -2.20910000
H        1.00710000       1.90390000       0.00920000
H       -0.54970000       1.95310000      -0.84040000
H       -0.50590000       1.89880000       0.93600000
H        0.43690000      -0.36140000      -0.93690000
H        0.49340000      -0.41220000       0.83900000
H       -4.00570000      -1.42490000       1.45270000
