15
Properties=species:S:1:pos:R:3 gdb_20981=T pbc="F F F"
C        0.01870000       1.42540000       0.09700000
N       -0.00900000       0.00830000      -0.22230000
C        1.21000000      -0.74150000       0.04410000
C       -1.19340000      -0.66730000      -0.09000000
N       -1.26650000      -1.97040000       0.08070000
O       -2.61620000      -2.26450000       0.08840000
N       -3.36930000      -1.14460000      -0.05150000
C       -2.53130000      -0.15500000      -0.15960000
H        0.93700000       1.85960000      -0.30660000
H       -0.82290000       1.94000000      -0.37250000
H       -0.01000000       1.62490000       1.17970000
H        1.36520000      -0.92650000       1.11770000
H        1.15910000      -1.70740000      -0.46090000
H        2.06280000      -0.17820000      -0.34320000
H       -2.88620000       0.85530000      -0.28150000
