17
Properties=species:S:1:pos:R:3 gdb_27760=T pbc="F F F"
C       -0.09300000       1.50250000      -0.12760000
C        0.09930000       0.02580000      -0.07340000
N        0.00550000      -0.81410000      -1.10570000
C        0.25000000      -2.08160000      -0.64460000
O        0.22360000      -3.15260000      -1.47210000
C        0.50120000      -2.02910000       0.70180000
C        0.82430000      -2.44580000       2.12790000
C        0.69940000      -0.90990000       2.46630000
N        0.40010000      -0.69760000       1.03150000
H        0.80670000       2.04450000       0.18630000
H       -0.32570000       1.78880000      -1.15420000
H       -0.91590000       1.83220000       0.51750000
H        0.01330000      -2.80330000      -2.34660000
H        0.08540000      -3.07760000       2.62750000
H        1.82010000      -2.86370000       2.29700000
H       -0.12530000      -0.63780000       3.12960000
H        1.61960000      -0.42260000       2.79750000
