21
Properties=species:S:1:pos:R:3 gdb_68242=T pbc="F F F"
C       -0.03010000       1.50860000       0.10190000
C        0.04990000       0.00020000       0.06800000
C        0.87600000      -0.79920000      -1.00220000
C        0.76690000      -1.94840000       0.05130000
C        0.85230000      -0.82150000       1.11940000
C       -0.73960000      -2.25090000      -0.04970000
C       -1.57650000      -2.43540000       1.23100000
O       -1.95050000      -1.03670000       1.24730000
C       -1.26980000      -0.79480000      -0.00830000
H        0.96520000       1.96310000       0.14500000
H       -0.53880000       1.89940000      -0.78730000
H       -0.59180000       1.84590000       0.98010000
H        0.42930000      -0.96190000      -1.98940000
H        1.89160000      -0.41110000      -1.11040000
H        1.45630000      -2.79290000       0.05540000
H        1.87240000      -0.44580000       1.22940000
H        0.40080000      -0.97180000       2.10140000
H       -0.99870000      -2.88850000      -0.89590000
H       -2.45620000      -3.07940000       1.10840000
H       -1.03980000      -2.73410000       2.13990000
H       -1.95820000      -0.42900000      -0.77800000
