15
Properties=species:S:1:pos:R:3 gdb_96632=T pbc="F F F"
C        0.00560000       1.45070000       0.06590000
N       -0.03460000       0.01080000      -0.08630000
H       -0.50060000      -0.54010000       0.61840000
C        0.60680000      -0.68260000      -1.04690000
N        1.27290000       0.01370000      -2.00130000
C        0.61670000      -2.08650000      -1.04160000
C        1.24640000      -2.76830000      -2.10450000
N        1.78570000      -3.24650000      -3.01640000
C       -0.00650000      -2.76670000       0.02630000
N       -0.54870000      -3.23740000       0.94040000
H        1.03620000       1.82330000       0.08130000
H       -0.54680000       1.96700000      -0.73050000
H       -0.46460000       1.71110000       1.01450000
H        1.01030000       0.96380000      -2.20010000
H        1.65300000      -0.51700000      -2.77100000
