16
Properties=species:S:1:pos:R:3 gdb_128279=T pbc="F F F"
C        0.03540000       1.40160000      -0.10160000
N       -0.08470000      -0.03990000      -0.07370000
C       -1.25540000      -0.67760000       0.02370000
N       -2.39360000      -0.03480000       0.10430000
C       -3.51820000      -0.80540000       0.20120000
N       -3.60080000      -2.10000000       0.22280000
N       -2.39570000      -2.74140000       0.13610000
C       -1.16050000      -2.15830000       0.03320000
N       -0.00720000      -2.72130000      -0.05050000
H        1.09230000       1.66450000      -0.16420000
H       -0.49210000       1.82450000      -0.96320000
H       -0.39400000       1.84760000       0.80140000
H        0.72100000      -0.64760000      -0.13200000
H       -4.46220000      -0.27550000       0.26870000
H       -2.46700000      -3.74750000       0.15320000
H       -0.06260000      -3.73940000      -0.03480000
