17
Properties=species:S:1:pos:R:3 gdb_108162=T pbc="F F F"
O        0.10710000       1.29610000       0.22450000
C       -0.03000000      -0.01170000      -0.30280000
C       -1.43700000      -0.53290000      -0.09940000
C       -2.62070000       0.27270000      -0.66960000
N       -3.77300000      -0.41520000      -0.03710000
C       -3.25200000      -1.08060000       0.91520000
C       -3.01600000      -2.56700000       0.75630000
C       -1.59050000      -1.98370000       0.42400000
N       -1.82460000      -0.79260000       1.29510000
H       -0.16190000       1.24530000       1.14980000
H        0.19400000       0.05960000      -1.37260000
H        0.70010000      -0.70270000       0.14340000
H       -2.49660000       1.33290000      -0.41460000
H       -2.75170000       0.19730000      -1.75390000
H       -2.92720000      -3.17170000       1.66270000
H       -3.61760000      -3.05520000      -0.00860000
H       -0.69580000      -2.58690000       0.56990000
