18
Properties=species:S:1:pos:R:3 gdb_51363=T pbc="F F F"
O       -0.57880000       0.74820000       0.96380000
C       -0.10290000       1.12490000      -0.07370000
C        1.34150000       1.56130000      -0.24950000
C        1.43880000       2.77550000      -1.16900000
C        2.36510000       3.93350000      -1.19120000
C        3.87060000       3.69180000      -0.98590000
C        4.22850000       2.25850000      -0.71530000
C        3.76960000       2.66790000      -2.09200000
N        2.30560000       2.96770000      -2.35780000
H       -0.71210000       1.16640000      -1.00750000
H        1.76270000       1.72580000       0.74500000
H        1.86340000       0.70710000      -0.70060000
H        0.44290000       3.10240000      -1.47810000
H        1.98400000       4.94470000      -1.30670000
H        4.56840000       4.50960000      -0.86990000
H        5.30250000       2.09310000      -0.68700000
H        3.68470000       1.62170000      -0.03590000
H        4.38170000       2.51900000      -2.97180000
