23
Properties=species:S:1:pos:R:3 gdb_94843=T pbc="F F F"
C       -0.39570000       1.38250000       0.06600000
C        0.01360000      -0.06160000      -0.17540000
C        1.22120000      -0.26930000      -1.09520000
C        1.74360000      -1.63670000      -0.63430000
C        1.14740000      -2.84160000      -1.43130000
C        2.47420000      -2.93200000      -2.23090000
C        3.15020000      -2.05390000      -1.14310000
C        1.48470000      -1.55270000       0.87290000
O        0.39510000      -0.65490000       1.07270000
H        0.44890000       1.96120000       0.45330000
H       -0.74160000       1.84570000      -0.86390000
H       -1.20820000       1.43230000       0.79640000
H       -0.85030000      -0.61560000      -0.58150000
H        0.95980000      -0.23530000      -2.15670000
H        1.97280000       0.50760000      -0.90400000
H        0.99410000      -3.71430000      -0.78930000
H        0.22650000      -2.66170000      -1.99350000
H        2.88970000      -3.92770000      -2.40040000
H        2.41280000      -2.41750000      -3.19360000
H        3.81400000      -1.25030000      -1.47480000
H        3.68490000      -2.65900000      -0.40350000
H        1.23930000      -2.53060000       1.30750000
H        2.37320000      -1.16730000       1.39710000
