20
Properties=species:S:1:pos:R:3 gdb_39652=T pbc="F F F"
C       -0.01950000       0.95040000      -0.88520000
O        0.85080000       1.89380000      -0.23670000
C        0.97300000       1.04270000       0.92270000
C        0.33700000      -0.14440000       0.16780000
N       -0.61850000      -0.93300000       0.92400000
C       -1.11870000      -2.24520000       0.34670000
C       -2.27370000      -2.14360000       1.37460000
C       -2.11530000      -0.75530000       0.70240000
C       -2.01810000      -1.48900000      -0.67050000
H       -1.06830000       1.27800000      -0.85240000
H        0.26620000       0.77010000      -1.92830000
H        2.01080000       0.94200000       1.25800000
H        0.35130000       1.39030000       1.75980000
H        1.10830000      -0.81910000      -0.21660000
H       -0.43880000      -3.08100000       0.16970000
H       -3.18580000      -2.69800000       1.14880000
H       -1.97960000      -2.19620000       2.42260000
H       -2.63160000       0.17370000       0.94840000
H       -1.51390000      -0.96950000      -1.48560000
H       -2.91600000      -2.00110000      -1.02940000
