21
Properties=species:S:1:pos:R:3 gdb_119014=T pbc="F F F"
O        0.03900000       1.46200000       0.41840000
C        0.09600000       0.05630000       0.23630000
C       -1.32900000      -0.43200000      -0.00190000
C       -1.45190000      -1.94690000      -0.19970000
O       -1.03080000      -2.65720000       0.97320000
C       -2.88830000      -2.42440000      -0.45980000
C       -2.65010000      -3.77810000      -1.12840000
O       -1.46960000      -3.61470000      -1.91800000
C       -0.73460000      -2.49100000      -1.45450000
H        0.92810000       1.77970000       0.60060000
H        0.73870000      -0.20500000      -0.62100000
H        0.51360000      -0.44000000       1.12690000
H       -1.93910000      -0.13870000       0.85900000
H       -1.73190000       0.08730000      -0.87870000
H       -0.06910000      -2.67190000       0.99420000
H       -3.45790000      -2.49100000       0.46920000
H       -3.39560000      -1.73440000      -1.14130000
H       -2.49340000      -4.56000000      -0.37340000
H       -3.46420000      -4.08860000      -1.79060000
H       -0.69070000      -1.72940000      -2.24670000
H        0.29810000      -2.79310000      -1.22680000
