11
Properties=species:S:1:pos:R:3 gdb_131449=T pbc="F F F"
O       -0.02580000       1.32510000       0.00970000
C        0.01750000       0.00170000       0.00230000
N        1.08850000      -0.73180000      -0.00660000
O        0.63940000      -2.08920000      -0.01190000
C       -0.70340000      -2.05320000      -0.00560000
N       -1.67520000      -2.91300000      -0.00580000
N       -2.83040000      -2.12530000       0.00380000
C       -2.50920000      -0.85910000       0.00910000
N       -1.12860000      -0.75120000       0.00350000
H        0.88230000       1.66090000       0.00730000
H       -3.18390000      -0.02050000       0.01670000
