23
Properties=species:S:1:pos:R:3 gdb_105236=T pbc="F F F"
C        0.77140000       1.05970000       0.55010000
O       -0.08090000       0.20900000      -0.20370000
C        0.52120000      -0.46510000      -1.28100000
C        1.77140000      -1.27350000      -1.04230000
C        0.44650000      -1.97300000      -1.26960000
C       -0.23620000      -2.71060000      -0.14010000
C        0.32010000       0.25400000      -2.60890000
C       -1.15580000       0.30740000      -3.00730000
O        0.88850000       1.56390000      -2.58610000
H        1.45150000       0.48890000       1.19670000
H        1.37150000       1.71140000      -0.09330000
H        0.12080000       1.66720000       1.18520000
H        2.52780000      -1.29260000      -1.82000000
H        2.16990000      -1.30060000      -0.03370000
H        0.32080000      -2.43150000      -2.24840000
H       -0.15010000      -2.15440000       0.79630000
H       -1.30400000      -2.84400000      -0.34470000
H        0.20450000      -3.70280000       0.00440000
H        0.88690000      -0.28770000      -3.37580000
H       -1.27650000       0.87250000      -3.93550000
H       -1.56240000      -0.69760000      -3.15330000
H       -1.74010000       0.79160000      -2.21720000
H        0.27580000       2.12460000      -2.09820000
