15
Properties=species:S:1:pos:R:3 gdb_35172=T pbc="F F F"
C       -0.12170000      -1.23750000       0.09380000
C       -0.06140000      -0.03740000       0.06300000
C       -0.00590000       1.39530000      -0.00550000
O        0.59690000       2.09820000       1.12990000
C        1.26550000       2.12280000      -0.08200000
C        2.73660000       1.80240000      -0.38290000
C        2.49930000       2.30730000      -1.82850000
C        1.84850000       3.32000000      -0.85210000
O        3.05260000       3.20250000       0.00900000
H       -0.17360000      -2.29790000       0.12990000
H       -0.90310000       1.88440000      -0.38220000
H        3.37950000       1.00880000      -0.00810000
H        3.39880000       2.68450000      -2.31390000
H        1.85570000       1.72260000      -2.49020000
H        1.44500000       4.31500000      -1.03140000
