21
Properties=species:S:1:pos:R:3 gdb_91421=T pbc="F F F"
C        0.02220000       1.60130000      -0.02460000
C        0.02000000       0.07240000      -0.00580000
C        0.64320000      -0.54340000      -1.28730000
C        1.10800000      -1.97160000      -1.00790000
C        0.19840000      -2.70170000       0.00560000
C        1.09670000      -1.96920000       1.01850000
O        2.15810000      -1.90610000       0.01300000
C        0.69580000      -0.50710000       1.27250000
O        1.85880000       0.20260000       1.66550000
H        1.04400000       1.98870000      -0.01060000
H       -0.48170000       1.97960000      -0.92050000
H       -0.49440000       2.00820000       0.85100000
H       -1.02640000      -0.25610000       0.03330000
H       -0.08160000      -0.52100000      -2.10990000
H        1.51540000       0.03550000      -1.61480000
H        1.44610000      -2.50610000      -1.89920000
H       -0.87460000      -2.50400000      -0.00100000
H        0.38370000      -3.77670000       0.01240000
H        1.42640000      -2.47780000       1.92770000
H       -0.00390000      -0.43350000       2.11350000
H        2.55480000      -0.10850000       1.06890000
