17
Properties=species:S:1:pos:R:3 gdb_47975=T pbc="F F F"
O       -0.22550000       0.11720000      -0.43030000
C        0.02380000       1.11690000       0.20860000
C        1.24280000       1.86470000       0.12150000
C        2.25930000       2.52450000       0.07920000
C        3.45670000       3.26710000      -0.01200000
C        3.99640000       4.08750000       1.14910000
C        3.64650000       4.81440000      -0.10190000
C        4.73300000       4.62620000      -1.16440000
C        4.56660000       3.07570000      -1.06490000
H       -0.70750000       1.53400000       0.93240000
H        3.30860000       4.20840000       1.97840000
H        5.03670000       3.95200000       1.43670000
H        2.85990000       5.55810000      -0.12540000
H        4.44240000       5.00810000      -2.14450000
H        5.71480000       5.03450000      -0.90610000
H        5.43410000       2.50250000      -0.72530000
H        4.19120000       2.63510000      -1.98910000
