19
Properties=species:S:1:pos:R:3 gdb_107873=T pbc="F F F"
C       -0.08100000       1.63130000      -0.00260000
C       -0.06550000       0.10970000       0.01060000
C        1.05620000      -0.63590000      -0.75240000
C        2.07740000      -0.45050000       0.41080000
O        2.44010000      -1.86140000       0.49120000
C        0.99320000      -1.85590000       0.22560000
C        0.34530000      -3.19740000       0.07910000
O        0.94040000      -3.92950000      -0.97630000
C        0.70370000      -0.62200000       1.13830000
H        0.91450000       2.04850000       0.18360000
H       -0.42540000       2.01230000      -0.97010000
H       -0.75560000       2.02510000       0.76540000
H       -1.06930000      -0.29010000      -0.17430000
H        1.28020000      -0.67220000      -1.81850000
H        2.86350000       0.28910000       0.55270000
H        0.41580000      -3.73560000       1.03810000
H       -0.71660000      -3.07970000      -0.16190000
H        1.89450000      -3.85620000      -0.85290000
H        0.53330000      -0.63510000       2.21560000
