15
Properties=species:S:1:pos:R:3 gdb_130436=T pbc="F F F"
N       -1.12960000       1.08560000       0.49270000
H       -1.87450000       0.98750000       2.10510000
H       -0.95010000       0.15180000       0.13480000
H       -1.50680000       1.63300000      -0.27320000
C        0.11660000       1.69380000       1.00430000
C        0.49990000       1.10110000       2.34040000
N        1.78740000       0.94170000       2.58450000
N        2.18770000       0.50240000       3.78370000
C        1.23880000       0.25480000       4.68000000
N       -0.08490000       0.35120000       4.51930000
C       -0.47260000       0.76450000       3.32640000
O       -1.77420000       0.85190000       3.08600000
H        0.97510000       1.60400000       0.32900000
H       -0.08400000       2.76470000       1.13650000
H        1.59000000      -0.07480000       5.65420000
