19
Properties=species:S:1:pos:R:3 gdb_70285=T pbc="F F F"
C       -0.06080000       1.55840000       0.03380000
C        0.05870000       0.05310000      -0.00160000
C       -0.80390000      -0.81410000       0.90900000
C        0.68630000      -0.80110000       1.10490000
C        1.49810000      -1.91480000       0.44550000
C        1.20190000      -1.73400000      -1.03100000
C        1.68540000      -2.63610000      -2.07170000
O        2.34400000      -3.63320000      -1.86230000
C        0.45110000      -0.63980000      -1.25600000
H        0.86670000       2.04260000      -0.29100000
H       -0.86820000       1.90960000      -0.61950000
H       -0.28250000       1.90710000       1.04680000
H       -1.40360000      -0.28880000       1.64590000
H       -1.27600000      -1.69670000       0.48900000
H        1.07430000      -0.32690000       1.99920000
H        2.57250000      -1.81330000       0.63980000
H        1.21660000      -2.91370000       0.79690000
H        1.40970000      -2.33640000      -3.10840000
H        0.14380000      -0.29500000      -2.23930000
