19
Properties=species:S:1:pos:R:3 gdb_37967=T pbc="F F F"
C        0.02760000       1.59620000      -0.08660000
C        1.55590000       1.53510000      -0.10990000
C        2.09460000       0.91770000       1.15760000
C        1.46950000       1.05290000       2.54480000
O        0.66820000      -0.05710000       2.93110000
C       -0.62110000      -0.07820000       2.38970000
O       -0.71410000      -0.61580000       1.09550000
C        0.01000000       0.02950000       0.07080000
C        1.54130000       0.01220000       0.09460000
H       -0.42220000       2.19640000       0.70860000
H       -0.41620000       1.90580000      -1.03450000
H        2.18920000       2.11680000      -0.76820000
H        3.18170000       0.89950000       1.17220000
H        2.26380000       1.11200000       3.29430000
H        0.88020000       1.97900000       2.62560000
H       -1.21620000      -0.74650000       3.01690000
H       -1.05250000       0.93740000       2.41840000
H       -0.35830000      -0.42670000      -0.85090000
H        2.15180000      -0.75280000      -0.37020000
