17
Properties=species:S:1:pos:R:3 gdb_65065=T pbc="F F F"
O        0.10210000       1.17220000       0.77840000
C        0.08630000      -0.05740000       0.11060000
C        0.95570000      -0.15220000      -1.09920000
C        1.31750000      -0.92480000       0.15660000
C       -1.27600000      -0.71580000       0.11720000
C       -2.20520000      -0.53540000      -1.01520000
O       -1.47980000      -1.75500000      -0.84920000
C       -1.80210000      -0.96060000       1.44280000
C       -2.18310000      -1.12320000       2.57170000
H       -0.08290000       0.99760000       1.70960000
H        0.59010000      -0.71840000      -1.94730000
H        1.53950000       0.72970000      -1.33480000
H        2.14730000      -0.55880000       0.75030000
H        1.18960000      -2.00140000       0.14200000
H       -3.27710000      -0.60600000      -0.84430000
H       -1.88900000       0.08910000      -1.84840000
H       -2.54240000      -1.28290000       3.55870000
