17
Properties=species:S:1:pos:R:3 gdb_69678=T pbc="F F F"
C        0.15110000       1.54660000       0.05740000
C       -0.08400000       0.06710000       0.00320000
C       -0.92260000      -0.68690000       0.95670000
N        0.54770000      -0.88030000       1.00130000
C        1.01540000      -1.70780000      -0.16420000
C        0.03630000      -2.21450000      -1.21660000
C       -1.28000000      -2.78370000      -1.08790000
N       -2.32220000      -3.28550000      -1.04450000
C        0.45270000      -0.75880000      -1.18960000
H        1.17060000       1.79500000      -0.25760000
H       -0.54680000       2.07310000      -0.60400000
H        0.00940000       1.92050000       1.07480000
H       -1.26610000      -0.12930000       1.82400000
H       -1.58280000      -1.49150000       0.66520000
H        1.99100000      -2.16910000      -0.07700000
H        0.59900000      -2.74730000      -1.98210000
H        0.92460000      -0.30040000      -2.04920000
