17
Properties=species:S:1:pos:R:3 gdb_128296=T pbc="F F F"
C       -0.06370000       1.47060000      -0.09490000
N        0.20890000       0.05490000       0.09740000
C        0.69860000      -0.66310000      -0.97720000
N        1.22370000      -0.11710000      -2.07240000
N        1.58180000      -1.16940000      -2.82400000
C        2.39920000      -1.01830000      -4.00200000
N        1.34940000      -2.36610000      -2.27070000
C        0.78150000      -2.06750000      -1.11560000
O        0.32260000      -2.97640000      -0.22640000
H        0.86400000       1.98640000      -0.35580000
H       -0.79120000       1.67080000      -0.89580000
H       -0.44020000       1.88730000       0.84210000
H       -0.50990000      -0.44510000       0.60030000
H        3.46690000      -0.97930000      -3.75340000
H        2.21630000      -1.86780000      -4.66150000
H        2.11470000      -0.09040000      -4.49990000
H        0.49380000      -3.85320000      -0.59020000
