15
Properties=species:S:1:pos:R:3 gdb_11711=T pbc="F F F"
C       -0.08000000       1.52850000      -0.02110000
C        0.11830000       0.03230000       0.06600000
O        1.19440000      -0.46660000      -0.79860000
C        1.75680000      -1.19240000       0.29200000
C        2.23620000      -0.25620000       1.36640000
C        0.77100000      -0.60830000       1.29510000
C        2.22480000      -2.52510000       0.08450000
N        2.61160000      -3.60470000      -0.06900000
H        0.81500000       2.07350000       0.28930000
H       -0.31800000       1.81530000      -1.05000000
H       -0.91490000       1.83290000       0.61870000
H       -0.80430000      -0.49880000      -0.19680000
H        2.76990000      -0.71980000       2.18910000
H        2.60430000       0.71770000       1.05960000
H        0.25010000      -1.10490000       2.10160000
