23
Properties=species:S:1:pos:R:3 gdb_79850=T pbc="F F F"
C       -0.14640000       1.61130000       0.00510000
C        0.01080000       0.09640000       0.01880000
C        1.22200000      -0.59540000      -0.66700000
C        2.13650000      -0.16310000       0.52590000
C        3.20210000      -1.22820000       0.76520000
C        2.34790000      -2.49880000       0.53960000
C        0.98130000      -1.87520000       0.22080000
C       -0.13350000      -2.86150000      -0.06330000
C        0.78270000      -0.62440000       1.15910000
H        0.77910000       2.14500000       0.23520000
H       -0.48890000       1.95270000      -0.97850000
H       -0.89970000       1.92560000       0.73680000
H       -0.95490000      -0.35910000      -0.22080000
H        1.48620000      -0.58390000      -1.72880000
H        2.43700000       0.88010000       0.61480000
H        4.03490000      -1.14380000       0.05940000
H        3.62250000      -1.17110000       1.77460000
H        2.71090000      -3.11660000      -0.28950000
H        2.29860000      -3.14370000       1.42410000
H       -0.28480000      -3.52740000       0.79450000
H       -1.09130000      -2.38250000      -0.28150000
H        0.12290000      -3.49400000      -0.92150000
H        0.53530000      -0.64670000       2.22480000
