18
Properties=species:S:1:pos:R:3 gdb_83528=T pbc="F F F"
O        0.05720000       1.40550000       0.06150000
C        0.01960000      -0.00030000       0.03770000
C       -1.36340000      -0.62430000      -0.31400000
C       -1.50860000      -0.08960000      -1.75650000
O       -0.14620000      -0.05380000      -2.26110000
C        0.68320000      -0.61030000      -1.21040000
C        0.34060000      -2.09220000      -1.11870000
N        0.15260000      -2.58870000       0.26580000
C       -1.01410000      -2.10140000      -0.50160000
H        0.05070000       1.70230000      -0.85700000
H        0.41820000      -0.36570000       0.97990000
H       -2.18810000      -0.37970000       0.35490000
H       -2.11860000      -0.73950000      -2.39360000
H       -1.92610000       0.92270000      -1.78720000
H        1.71680000      -0.33200000      -1.41510000
H        0.63400000      -2.77240000      -1.90990000
H        0.14890000      -3.60540000       0.24290000
H       -1.78120000      -2.80540000      -0.80780000
