18
Properties=species:S:1:pos:R:3 gdb_65279=T pbc="F F F"
C        0.41600000       1.71990000      -0.10970000
C        0.00420000       0.26990000      -0.27240000
C        1.08010000      -0.78150000      -0.28800000
C        0.15160000      -0.67050000       0.90580000
N       -1.06390000       0.13580000      -1.23430000
C       -2.17320000      -0.32720000      -0.87150000
O       -3.24410000      -0.47270000      -1.71320000
C       -3.03820000      -0.45020000      -3.07370000
O       -3.95980000      -0.44330000      -3.82650000
H        1.28700000       1.80450000       0.54600000
H        0.66860000       2.15440000      -1.08170000
H       -0.39720000       2.31170000       0.32410000
H        0.93660000      -1.63010000      -0.94800000
H        2.11090000      -0.46060000      -0.18370000
H        0.54350000      -0.26470000       1.83230000
H       -0.56750000      -1.46900000       1.04810000
H       -2.45480000      -0.65100000       0.13250000
H       -1.97300000      -0.45800000      -3.33640000
