18
Properties=species:S:1:pos:R:3 gdb_75432=T pbc="F F F"
C       -0.00690000       1.50640000       0.04750000
C       -0.07460000       0.01050000      -0.00270000
N       -1.16200000      -0.62940000       0.06480000
C       -1.11690000      -2.08550000       0.10030000
C       -0.64860000      -2.72550000      -1.22020000
C        0.83910000      -2.61180000      -1.49110000
O        1.48600000      -3.52980000      -1.93930000
C        1.52950000      -1.26320000      -1.25500000
O        1.17890000      -0.57300000      -0.05580000
H        0.61520000       1.81810000       0.89320000
H        0.46930000       1.89990000      -0.85780000
H       -1.00660000       1.92720000       0.15030000
H       -0.47310000      -2.42970000       0.92130000
H       -2.12950000      -2.44060000       0.30960000
H       -0.90230000      -3.78830000      -1.25240000
H       -1.18070000      -2.23380000      -2.04680000
H        2.60380000      -1.44580000      -1.20330000
H        1.33030000      -0.62520000      -2.13090000
