18
Properties=species:S:1:pos:R:3 gdb_30917=T pbc="F F F"
C       -0.13330000       1.41300000       0.12540000
N       -0.06200000      -0.03420000       0.09270000
C       -0.07540000      -0.82720000      -1.00180000
N        0.01690000      -2.10900000      -0.70220000
C        0.09820000      -2.14960000       0.66410000
N        0.27620000      -3.37330000       1.31540000
C        0.05710000      -0.87590000       1.20130000
C        0.09310000      -0.37450000       2.59770000
O       -1.11130000       0.29210000       3.00690000
H        0.84290000       1.85470000       0.35610000
H       -0.45670000       1.77630000      -0.85200000
H       -0.84760000       1.72790000       0.88920000
H       -0.16620000      -0.42160000      -1.99910000
H        0.03230000      -4.13780000       0.69900000
H       -0.22400000      -3.45390000       2.19020000
H        0.32890000      -1.21550000       3.26600000
H        0.88020000       0.37430000       2.74720000
H       -1.84370000      -0.28700000       2.76860000
