16
Properties=species:S:1:pos:R:3 gdb_107869=T pbc="F F F"
O        0.01030000       1.43010000       0.11250000
C       -0.02150000       0.01150000       0.10410000
C       -1.43130000      -0.51040000       0.07020000
N       -2.39350000      -0.19690000      -1.04320000
C       -3.14660000      -1.06770000      -0.08690000
C       -1.91220000      -2.00940000       0.14470000
C       -2.09430000      -1.87190000       1.65150000
O       -1.96780000      -2.52610000       2.64180000
C       -2.51540000      -0.47100000       1.22890000
H       -0.18160000       1.73110000      -0.78130000
H        0.53990000      -0.40100000      -0.74650000
H        0.46830000      -0.32390000       1.02480000
H       -2.71950000       0.76950000      -0.94930000
H       -4.17910000      -1.38050000      -0.23460000
H       -1.58980000      -2.82390000      -0.49840000
H       -2.84700000       0.40510000       1.78170000
