20
Properties=species:S:1:pos:R:3 gdb_115407=T pbc="F F F"
C        0.42670000       0.72310000      -0.45990000
O       -0.10540000      -0.49490000       0.00930000
C       -1.49690000      -0.46320000       0.26070000
C       -2.33280000      -0.61590000      -1.02480000
O       -2.44580000      -2.02190000      -1.25680000
C       -2.19180000      -2.72240000      -0.09970000
C       -1.86460000      -1.74480000       1.00860000
N       -2.23390000      -3.97360000       0.01600000
C       -2.58440000      -4.79660000      -1.13000000
H        1.50430000       0.58140000      -0.56820000
H        0.01550000       1.01800000      -1.43700000
H        0.24400000       1.54370000       0.25150000
H       -1.76330000       0.45210000       0.80790000
H       -3.33370000      -0.18150000      -0.90010000
H       -1.86030000      -0.16310000      -1.89980000
H       -1.05400000      -2.10350000       1.64160000
H       -2.75060000      -1.58730000       1.63300000
H       -2.78850000      -4.23520000      -2.04850000
H       -1.76890000      -5.50290000      -1.32400000
H       -3.46740000      -5.39710000      -0.88200000
