18
Properties=species:S:1:pos:R:3 gdb_66651=T pbc="F F F"
O       -0.09580000       1.42240000       0.03210000
C        0.01270000       0.06010000       0.02580000
C       -1.05220000      -0.99350000       0.15250000
C       -0.03660000      -0.98530000      -1.04060000
N        1.18190000      -1.67070000      -0.57570000
C        0.96630000      -3.11520000      -0.34140000
C       -0.02810000      -3.24440000       0.86130000
C       -0.28580000      -1.77960000       1.22340000
C        0.96700000      -0.97400000       0.73920000
H        0.62250000       1.78740000      -0.49800000
H       -2.11870000      -0.90700000      -0.01030000
H       -0.34310000      -0.94180000      -2.07830000
H        0.59610000      -3.57920000      -1.25980000
H        1.92950000      -3.57920000      -0.10550000
H       -0.95110000      -3.76650000       0.59250000
H        0.42650000      -3.79230000       1.69300000
H       -0.60840000      -1.57700000       2.24510000
H        1.83780000      -0.79560000       1.36870000
