19
Properties=species:S:1:pos:R:3 gdb_102272=T pbc="F F F"
C        0.33990000       1.17560000      -0.47410000
C        0.14910000      -0.14860000       0.22960000
O        0.99500000      -0.63780000       0.94270000
C       -1.19540000      -0.84960000       0.01230000
C       -1.03980000      -2.37010000      -0.02950000
C       -2.36570000      -3.13400000       0.15700000
O       -2.18650000      -4.53830000       0.21350000
C       -0.34570000      -2.80130000      -1.30850000
O        0.14920000      -2.03160000      -2.09640000
H        1.25910000       1.65610000      -0.13750000
H        0.39460000       0.98570000      -1.55210000
H       -0.51780000       1.83620000      -0.30530000
H       -1.83960000      -0.56240000       0.85500000
H       -1.67340000      -0.47870000      -0.89880000
H       -0.36670000      -2.66040000       0.79270000
H       -2.87690000      -2.75260000       1.05370000
H       -3.03270000      -2.95460000      -0.69380000
H       -1.70400000      -4.74550000       1.02070000
H       -0.32620000      -3.89610000      -1.48160000
