25
Properties=species:S:1:pos:R:3 gdb_121140=T pbc="F F F"
C       -0.52840000       1.25020000      -0.12890000
C        0.23390000      -0.06420000      -0.13650000
O        0.22340000      -0.59820000       1.17360000
C        0.87480000      -1.83400000       1.28940000
C        2.42700000      -1.88710000       1.27400000
C        2.34710000      -2.90080000       2.44770000
C        0.87370000      -2.45190000       2.72020000
C        0.79390000      -1.38220000       3.81340000
C       -0.14580000      -3.55990000       2.96660000
H       -0.05990000       1.96090000       0.55790000
H       -0.54090000       1.69110000      -1.13020000
H       -1.56110000       1.09240000       0.19510000
H       -0.23100000      -0.77800000      -0.83810000
H        1.26950000       0.09350000      -0.47880000
H        0.45810000      -2.54910000       0.56040000
H        2.92030000      -2.21070000       0.35480000
H        2.85210000      -0.92910000       1.58560000
H        2.40340000      -3.93760000       2.10360000
H        3.05700000      -2.76930000       3.26810000
H        1.53100000      -0.58780000       3.66580000
H       -0.19360000      -0.91210000       3.82790000
H        0.97530000      -1.83460000       4.79490000
H        0.02960000      -4.05000000       3.93150000
H       -1.16650000      -3.16040000       2.97860000
H       -0.09460000      -4.32910000       2.18830000
