20
Properties=species:S:1:pos:R:3 gdb_94220=T pbc="F F F"
C       -0.42440000       1.40560000      -0.07160000
C        0.07450000      -0.03130000      -0.06030000
C        1.41220000      -0.35130000      -0.76000000
O        1.93180000      -0.99900000       0.41920000
C        0.77550000      -0.62120000       1.20630000
C        1.16080000       0.34520000       2.31730000
C        0.06790000      -1.88040000       1.75130000
C        0.84110000      -2.59360000       2.76560000
N        1.45080000      -3.14890000       3.57500000
H        0.35620000       2.11310000       0.22250000
H       -0.75700000       1.68140000      -1.07800000
H       -1.27610000       1.54140000       0.60320000
H       -0.72620000      -0.69540000      -0.40100000
H        1.37370000      -1.02950000      -1.61960000
H        2.00430000       0.53280000      -1.03200000
H        1.68810000       1.21080000       1.91110000
H        0.27820000       0.69900000       2.86100000
H        1.82580000      -0.15270000       3.02840000
H       -0.90000000      -1.59720000       2.18290000
H       -0.13050000      -2.56460000       0.92020000
