16
Properties=species:S:1:pos:R:3 gdb_25642=T pbc="F F F"
C       -0.12590000       1.45160000       0.03100000
C       -0.02440000       0.00220000      -0.00180000
C        0.05660000      -1.20200000      -0.03100000
C        0.16480000      -2.60270000      -0.06210000
C        1.23980000      -3.44350000       0.06110000
C        0.73670000      -4.77710000      -0.05170000
N        1.50900000      -5.94650000      -0.05630000
C       -0.61170000      -4.64860000      -0.23610000
O       -0.97280000      -3.33290000      -0.24970000
H        0.49150000       1.91430000      -0.74750000
H       -1.16040000       1.77290000      -0.13190000
H        0.19850000       1.85510000       0.99710000
H        2.26520000      -3.14250000       0.20780000
H        2.28940000      -5.90010000       0.58600000
H        0.96750000      -6.77860000       0.13830000
H       -1.40920000      -5.35890000      -0.37650000
