18
Properties=species:S:1:pos:R:3 gdb_70654=T pbc="F F F"
O        0.15080000       1.23270000      -0.29590000
C       -0.06790000      -0.11970000      -0.06780000
C       -0.67720000      -0.98800000      -1.13660000
C       -1.46250000      -0.64750000       0.11990000
C       -1.45550000      -1.65750000       1.25690000
C        0.02900000      -2.06050000       1.42250000
C        0.82600000      -0.80380000       0.97780000
C        2.17150000      -1.09610000       0.48740000
N        3.22850000      -1.31340000       0.07190000
H        0.89860000       1.32070000      -0.89830000
H       -0.97920000      -0.46550000      -2.03720000
H       -0.31500000      -1.99780000      -1.30080000
H       -2.30280000       0.02870000       0.01450000
H       -1.82620000      -1.17730000       2.16970000
H       -2.09030000      -2.52920000       1.06850000
H        0.27990000      -2.35900000       2.44220000
H        0.27890000      -2.90260000       0.77230000
H        0.91950000      -0.10090000       1.81460000
