18
Properties=species:S:1:pos:R:3 gdb_11474=T pbc="F F F"
C       -0.36040000       1.18860000      -0.11990000
O       -0.15760000      -0.20760000      -0.24410000
C        0.85690000      -0.54700000      -1.15030000
C        1.02020000      -2.07670000      -1.13340000
C        0.67130000      -2.51800000      -2.56450000
O       -0.05680000      -3.73140000      -2.53330000
C       -0.12550000      -1.30520000      -3.07760000
O        0.52430000      -0.18780000      -2.48620000
H        0.55070000       1.69400000       0.23610000
H       -0.65940000       1.63860000      -1.07350000
H       -1.15520000       1.33200000       0.61520000
H        1.77130000       0.01460000      -0.91120000
H        2.02210000      -2.38130000      -0.82740000
H        0.29590000      -2.50870000      -0.43960000
H        1.58790000      -2.62840000      -3.16170000
H       -0.16450000      -4.04210000      -3.43750000
H       -0.10060000      -1.17260000      -4.16280000
H       -1.17060000      -1.39550000      -2.74730000
