18
Properties=species:S:1:pos:R:3 gdb_78200=T pbc="F F F"
C       -0.12930000       1.50580000      -0.04110000
N        0.10900000       0.07410000       0.06880000
C        1.38850000      -0.55620000      -0.16610000
C        0.74160000      -0.55640000       1.19560000
C        1.91790000       0.27680000       1.79360000
C        2.69500000      -0.46230000       2.76310000
C        3.35680000      -1.12590000       3.51910000
C        2.58440000       0.28180000       0.34720000
O        3.83700000      -0.32610000       0.23600000
H        0.65350000       2.15210000       0.38010000
H       -0.24280000       1.75940000      -1.09910000
H       -1.06980000       1.74090000       0.46630000
H        1.46770000      -1.34200000      -0.91070000
H        0.22080000      -1.33910000       1.73670000
H        1.64220000       1.25870000       2.19240000
H        3.92740000      -1.68580000       4.21870000
H        2.67970000       1.27570000      -0.09920000
H        3.90690000      -1.00690000       0.91890000
