19
Properties=species:S:1:pos:R:3 gdb_37523=T pbc="F F F"
C       -0.06610000       1.61620000      -0.06400000
C        1.46710000       1.51230000       0.01270000
C        1.34890000       0.19480000       0.84240000
C        2.45120000      -0.48100000      -0.00780000
C        2.12340000      -1.88000000      -0.51010000
O        1.01530000      -1.68340000      -1.40030000
C        0.65190000      -0.31090000      -1.33480000
C       -0.00190000       0.07030000       0.00930000
C        1.94960000       0.51080000      -1.10040000
H       -0.48540000       2.06410000       0.84190000
H       -0.53070000       2.06990000      -0.94650000
H        2.12530000       2.33840000       0.27860000
H        1.29830000       0.15520000       1.92960000
H        3.46440000      -0.32940000       0.36630000
H        2.95140000      -2.33980000      -1.06620000
H        1.83770000      -2.56120000       0.30320000
H        0.05860000      -0.07980000      -2.22090000
H       -0.84310000      -0.53850000       0.33820000
H        2.54910000       0.80190000      -1.96120000
