20
Properties=species:S:1:pos:R:3 gdb_10515=T pbc="F F F"
C        0.08250000       1.31200000       0.64840000
C       -0.01290000      -0.07410000      -0.00160000
C       -1.38810000      -0.71320000       0.11890000
C       -2.52420000       0.01330000      -0.58500000
C       -3.89190000      -0.67420000      -0.53340000
O       -4.91670000       0.13840000      -1.08540000
C       -1.46290000      -2.15410000       0.41480000
O       -1.69120000      -1.18720000       1.44500000
H        1.11130000       1.68220000       0.61590000
H       -0.54690000       2.04890000       0.14020000
H       -0.22750000       1.26450000       1.69670000
H        0.25800000      -0.01200000      -1.06340000
H        0.71410000      -0.74270000       0.47180000
H       -2.62610000       1.00660000      -0.12640000
H       -2.24710000       0.18700000      -1.63180000
H       -3.88750000      -1.58350000      -1.14260000
H       -4.11740000      -0.96680000       0.50160000
H       -5.02950000       0.90040000      -0.50850000
H       -2.33290000      -2.74060000       0.12680000
H       -0.54040000      -2.72650000       0.50880000
