19
Properties=species:S:1:pos:R:3 gdb_105203=T pbc="F F F"
C       -0.10690000       1.46410000      -0.00970000
N        0.12700000       0.03050000       0.07360000
C        1.48640000      -0.45210000      -0.08780000
C        0.82230000      -0.55080000       1.24490000
C        1.32910000       0.31160000       2.38980000
N        0.24630000       0.58110000       3.35750000
H       -0.42500000       1.23740000       2.97100000
H       -0.28940000      -1.10760000       3.25690000
H        0.61390000       0.98850000       4.21070000
C        0.24470000      -1.92000000       1.61540000
O        0.28380000      -2.85790000       0.86400000
O       -0.31100000      -2.00270000       2.83060000
H        0.71280000       2.09710000       0.36560000
H       -0.26360000       1.72040000      -1.06210000
H       -1.02540000       1.71850000       0.53100000
H        1.60050000      -1.35900000      -0.67230000
H        2.28240000       0.28690000      -0.18500000
H        2.10910000      -0.24420000       2.92210000
H        1.79930000       1.22400000       2.00400000
