16
Properties=species:S:1:pos:R:3 gdb_123473=T pbc="F F F"
C       -0.00570000       1.44270000       0.43170000
C       -0.07490000      -0.04480000       0.17640000
C       -1.30140000      -0.66790000      -0.33390000
O       -0.18530000      -0.43040000      -1.19370000
N        1.31610000       1.98360000       0.15130000
C        2.16140000       2.63910000       1.00370000
N        3.26500000       2.98580000       0.39590000
N        3.16240000       2.54940000      -0.91180000
C        2.00120000       1.95960000      -1.03420000
H       -0.75130000       1.95180000      -0.18800000
H       -0.23560000       1.65540000       1.48000000
H        0.62040000      -0.65010000       0.75850000
H       -1.50530000      -1.71270000      -0.10860000
H       -2.17920000      -0.05250000      -0.52630000
H        1.91660000       2.83210000       2.03720000
H        1.60680000       1.49710000      -1.92520000
