13
Properties=species:S:1:pos:R:3 gdb_24396=T pbc="F F F"
C       -0.03210000       1.50320000      -0.05590000
N        1.34330000       1.99370000       0.11800000
C        2.32710000       1.21940000       0.26560000
O        2.37150000      -0.15950000       0.29990000
C        1.13300000      -0.70260000       0.14550000
C        0.00850000       0.01950000      -0.01980000
O       -1.01880000      -0.87780000      -0.13870000
C       -0.41270000      -2.08770000      -0.03280000
N        0.87330000      -2.04930000       0.13860000
H       -0.65840000       1.93550000       0.73670000
H       -0.42580000       1.89960000      -1.00200000
H        3.33290000       1.60920000       0.39210000
H       -1.04820000      -2.95580000      -0.09990000
