19
Properties=species:S:1:pos:R:3 gdb_120410=T pbc="F F F"
C       -0.11370000       1.31140000      -0.00600000
O       -0.13940000      -0.09110000      -0.13650000
C        0.88850000      -0.58520000      -0.97210000
C        0.73040000      -2.09220000      -1.03290000
N       -0.53700000      -2.54310000      -1.64980000
C        0.06240000      -2.90510000      -2.84510000
N       -0.26720000      -3.14560000      -4.04300000
C        1.45880000      -2.78930000      -2.23420000
O        2.37280000      -2.02020000      -2.97000000
H        0.82870000       1.66100000       0.44320000
H       -0.23640000       1.81400000      -0.97830000
H       -0.94290000       1.59480000       0.64680000
H        0.81610000      -0.15190000      -1.98110000
H        1.88330000      -0.32630000      -0.57480000
H        0.90140000      -2.53250000      -0.04630000
H       -1.42950000      -2.08400000      -1.52720000
H       -1.27060000      -3.04530000      -4.20220000
H        1.89490000      -3.75390000      -1.94740000
H        2.07390000      -2.05390000      -3.88770000
