12
Properties=species:S:1:pos:R:3 gdb_128625=T pbc="F F F"
C        0.00560000       1.39500000      -0.03120000
O        0.02130000      -0.04650000      -0.03380000
C        0.59620000      -0.64740000      -1.04210000
N        0.70100000      -1.93480000      -1.20660000
C        1.37420000      -1.98590000      -2.39790000
N        1.67580000      -0.83150000      -2.95010000
O        1.14580000       0.08360000      -2.02690000
C        1.74360000      -3.21200000      -3.03200000
N        2.03900000      -4.20710000      -3.53860000
H        1.02530000       1.78740000      -0.02480000
H       -0.53140000       1.77210000      -0.90470000
H       -0.51440000       1.67160000       0.88400000
