16
Properties=species:S:1:pos:R:3 gdb_43050=T pbc="F F F"
O       -0.01930000       0.04010000       0.19300000
C       -0.04980000       1.23210000       0.09500000
C       -1.23340000       2.19870000       0.00030000
N       -0.80890000       3.05670000       1.18360000
C        0.25260000       3.53120000       0.22930000
C       -0.66320000       3.28080000      -0.99670000
C        0.24270000       2.78790000      -2.11960000
O        1.42060000       2.30750000      -1.43830000
C        1.10200000       2.26600000      -0.04580000
H       -2.24110000       1.78980000      -0.02810000
H       -1.49470000       3.80650000       1.27570000
H        0.77140000       4.46580000       0.43520000
H       -1.37630000       4.06720000      -1.24600000
H       -0.20630000       1.98120000      -2.71320000
H        0.54060000       3.59410000      -2.79920000
H        2.00730000       2.08920000       0.52980000
