17
Properties=species:S:1:pos:R:3 gdb_36622=T pbc="F F F"
N        0.07530000      -1.19690000      -0.12410000
C        0.03920000      -0.04260000      -0.13170000
C       -0.01470000       1.42190000      -0.11120000
N        1.28790000       1.98810000       0.23990000
C        1.34820000       3.40190000       0.17880000
C        1.54720000       4.12130000      -1.14450000
C        2.53290000       4.31700000      -0.03370000
O        2.05140000       5.28170000       0.90330000
C        0.92050000       4.43380000       1.23600000
H       -0.28390000       1.77650000      -1.11270000
H       -0.83790000       1.71940000       0.56050000
H        1.60370000       1.63220000       1.13590000
H        1.88220000       3.46730000      -1.94320000
H        0.90160000       4.94360000      -1.43980000
H        3.60000000       4.14020000      -0.09180000
H       -0.04010000       4.94710000       1.10970000
H        1.01010000       4.05960000       2.26420000
