16
Properties=species:S:1:pos:R:3 gdb_42904=T pbc="F F F"
O       -0.23840000       0.01980000      -0.02530000
C       -0.14220000       1.20210000       0.05070000
N       -1.18070000       2.22270000      -0.04260000
C       -0.99920000       3.07020000       1.17450000
C       -0.06530000       3.27880000       0.06250000
C        1.03520000       2.21980000       0.08510000
C        2.22750000       2.14830000       1.05650000
C        3.07170000       2.00860000      -0.22540000
O        1.89430000       2.16720000      -1.05620000
H       -1.81450000       3.77300000       1.30970000
H       -0.65640000       2.59800000       2.09260000
H       -0.07140000       4.14060000      -0.59230000
H        2.39470000       3.06150000       1.63000000
H        2.22910000       1.28670000       1.72510000
H        3.80710000       2.79680000      -0.41760000
H        3.53880000       1.02970000      -0.37390000
