20
Properties=species:S:1:pos:R:3 gdb_92187=T pbc="F F F"
O        0.02550000       1.37610000      -0.23350000
C        0.02080000      -0.02990000      -0.00380000
C        0.66650000      -0.43820000       1.34940000
C       -0.43680000      -0.57410000       2.40510000
C       -1.40800000       0.62550000       2.26150000
N       -2.21520000      -0.15620000       1.26710000
C       -1.62230000      -1.43350000       1.83760000
C       -1.45780000      -1.99250000       0.42020000
C       -1.43530000      -0.50140000      -0.00200000
H        0.94050000       1.67490000      -0.23120000
H        0.54020000      -0.53820000      -0.83190000
H        1.21390000      -1.38110000       1.24040000
H        1.39820000       0.32110000       1.65150000
H       -0.04260000      -0.82870000       3.39270000
H       -2.02970000       0.78940000       3.14770000
H       -1.00700000       1.57640000       1.90870000
H       -2.21150000      -1.97770000       2.58120000
H       -0.59180000      -2.61230000       0.17380000
H       -2.37050000      -2.49730000       0.09750000
H       -1.94880000      -0.19690000      -0.91610000
