13
Properties=species:S:1:pos:R:3 gdb_61109=T pbc="F F F"
O        0.00640000       1.40700000       0.01970000
C        0.00710000       0.00260000       0.01770000
C        0.70830000      -0.57050000      -1.26180000
C        0.10390000      -0.00500000      -2.45760000
C       -0.42070000       0.52050000      -3.40280000
C        0.76260000      -0.43910000       1.20770000
N        1.38000000      -0.81830000       2.10550000
C       -1.37840000      -0.53180000       0.10480000
N       -2.46210000      -0.92830000       0.13880000
H       -0.32820000       1.68920000      -0.84500000
H        1.76660000      -0.29750000      -1.19690000
H        0.64160000      -1.66290000      -1.25500000
H       -0.87900000       0.95150000      -4.25970000
