18
Properties=species:S:1:pos:R:3 gdb_92398=T pbc="F F F"
C       -0.13030000       1.55380000      -0.01120000
N        0.02350000       0.11870000       0.08580000
C       -1.19170000      -0.70260000       0.29130000
C       -0.44400000      -1.55320000       1.32960000
O        0.41850000      -2.55620000       0.77540000
C        1.57560000      -1.68790000       0.83240000
C        0.70110000      -0.48890000       1.27280000
C        1.12680000       0.36580000       2.34620000
C        1.49150000       1.08950000       3.23570000
H        0.85200000       2.03270000      -0.05790000
H       -0.66330000       1.78680000      -0.93910000
H       -0.68980000       2.00230000       0.82870000
H       -2.02040000      -0.14300000       0.75480000
H       -1.55370000      -1.22080000      -0.60230000
H       -0.96630000      -1.88300000       2.22900000
H        2.29170000      -2.02820000       1.59000000
H        2.06140000      -1.56680000      -0.14010000
H        1.81250000       1.72220000       4.02620000
