20
Properties=species:S:1:pos:R:3 gdb_105796=T pbc="F F F"
C       -0.03560000       1.59190000       0.08990000
C        0.14320000       0.07540000       0.09570000
C        1.27260000      -0.84930000      -0.32900000
N        2.71460000      -0.57800000       0.03710000
C        2.84300000       0.72920000       0.70380000
C        2.25230000      -0.39850000       1.46120000
C        0.80580000      -0.81850000       1.11640000
C        0.09580000      -1.85690000       1.93090000
O       -0.35190000      -1.35740000       3.18650000
H        0.39460000       2.05770000      -0.80280000
H       -1.10440000       1.82900000       0.09150000
H        0.39920000       2.07080000       0.96980000
H       -0.76830000      -0.42080000      -0.24290000
H        1.11610000      -1.60290000      -1.09180000
H        3.88140000       0.95430000       0.93590000
H        2.27500000       1.58030000       0.36230000
H        2.78640000      -0.88130000       2.27380000
H       -0.73500000      -2.27990000       1.34330000
H        0.77430000      -2.68210000       2.17620000
H       -0.91130000      -0.59420000       3.00750000
