23
Properties=species:S:1:pos:R:3 gdb_119272=T pbc="F F F"
C        0.19840000       1.71030000      -1.26800000
O        0.10760000       0.32220000      -1.47260000
C        0.56730000      -0.42810000      -0.36860000
C        0.39530000      -1.91040000      -0.64230000
C        0.89360000      -2.78730000       0.47890000
O        0.15120000      -2.51500000       1.65300000
C        0.59450000      -3.25480000       2.76350000
C       -0.80470000      -2.37300000      -1.42760000
C        0.57050000      -2.42120000      -2.05080000
H       -0.40030000       2.03560000      -0.40250000
H        1.23910000       2.03220000      -1.10300000
H       -0.18380000       2.20030000      -2.16690000
H        1.63350000      -0.20610000      -0.17720000
H        0.01060000      -0.15530000       0.54130000
H        0.79260000      -3.84940000       0.19900000
H        1.96750000      -2.60240000       0.66510000
H       -0.02950000      -2.97500000       3.61590000
H        0.50070000      -4.34020000       2.59670000
H        1.64740000      -3.03880000       3.00750000
H       -1.27460000      -3.30540000      -1.13350000
H       -1.48340000      -1.60970000      -1.78740000
H        0.79520000      -1.68730000      -2.81490000
H        1.04330000      -3.38800000      -2.19060000
