17
Properties=species:S:1:pos:R:3 gdb_22739=T pbc="F F F"
O       -0.25810000       1.25080000      -0.38700000
N       -0.06920000      -0.14960000      -0.46900000
C       -1.13700000      -0.74760000      -0.14040000
C       -2.54820000      -0.31560000       0.24550000
O       -3.20280000       0.54370000      -0.65460000
C       -2.97690000      -1.81360000       0.13750000
C       -1.50220000      -2.19230000      -0.10040000
C       -0.87490000      -3.31420000      -0.84000000
N       -0.78230000      -3.24640000       0.62530000
H        0.58900000       1.59360000      -0.69130000
H       -2.59120000       0.06090000       1.27870000
H       -2.63260000       1.31450000      -0.76220000
H       -3.43080000      -2.24430000       1.03080000
H       -3.61750000      -1.98140000      -0.73050000
H       -1.50470000      -4.11380000      -1.22100000
H        0.00430000      -3.08960000      -1.43800000
H        0.13440000      -2.89820000       0.89950000
