15
Properties=species:S:1:pos:R:3 gdb_27557=T pbc="F F F"
O       -0.41330000       1.23780000       0.68250000
C       -0.20010000       0.00480000       0.19410000
N       -0.90160000      -0.61100000      -0.71850000
C       -0.27560000      -1.84310000      -0.86480000
C        0.79560000      -1.94580000      -0.02450000
N        0.83820000      -0.73330000       0.65720000
C       -0.77720000      -2.84860000      -1.82110000
C        0.04240000      -3.34930000      -2.94110000
O       -0.15390000      -4.13400000      -1.76490000
H       -1.19240000       1.57830000       0.22530000
H        1.49510000      -2.74070000       0.16370000
H        1.48610000      -0.45710000       1.37480000
H       -1.86010000      -2.86490000      -1.94410000
H       -0.44170000      -3.72690000      -3.84120000
H        1.04660000      -2.95070000      -3.07450000
