23
Properties=species:S:1:pos:R:3 gdb_101830=T pbc="F F F"
C        0.33640000       1.37090000       0.37310000
C        0.02610000      -0.07790000      -0.01900000
C       -1.47290000      -0.30120000      -0.21980000
O       -2.12980000      -0.03330000       1.01040000
C        0.79010000      -0.50240000      -1.27200000
O        2.18010000      -0.43180000      -1.00080000
C        2.97380000      -0.77260000      -2.09170000
C        3.29690000       0.27650000      -3.12670000
C        4.34370000      -0.18050000      -2.12810000
H        1.40700000       1.50060000       0.54490000
H        0.03560000       2.06100000      -0.42570000
H       -0.20760000       1.64630000       1.27880000
H        0.34440000      -0.73950000       0.79710000
H       -1.84300000       0.36310000      -1.01910000
H       -1.65510000      -1.33880000      -0.54450000
H       -3.07730000      -0.11100000       0.86870000
H        0.51680000      -1.53150000      -1.56060000
H        0.53710000       0.15340000      -2.12170000
H        2.84490000      -1.80040000      -2.43560000
H        3.39470000      -0.02260000      -4.16460000
H        2.87130000       1.26180000      -2.97280000
H        4.59150000       0.50500000      -1.32590000
H        5.16640000      -0.79670000      -2.47250000
