17
Properties=species:S:1:pos:R:3 gdb_111729=T pbc="F F F"
O        0.12750000       1.31660000      -0.36690000
C        0.08650000       0.00760000       0.18120000
C       -1.31420000      -0.56340000       0.15030000
C       -1.91060000      -1.21040000      -1.05630000
O       -0.93100000      -1.90820000      -1.82110000
C       -0.69930000      -2.83170000      -0.72590000
C       -1.65140000      -2.05790000       0.19710000
C       -2.52740000      -2.64250000       1.14830000
C       -3.25580000      -3.15500000       1.95830000
H       -0.08730000       1.24130000      -1.30260000
H        0.78550000      -0.66110000      -0.33620000
H        0.42470000       0.10530000       1.21750000
H       -2.04280000       0.01670000       0.71200000
H       -2.83420000      -0.92620000      -1.54770000
H       -1.08730000      -3.82420000      -0.97480000
H        0.35650000      -2.89980000      -0.44370000
H       -3.90210000      -3.60220000       2.67210000
