21
Properties=species:S:1:pos:R:3 gdb_76549=T pbc="F F F"
C       -0.23830000       1.45470000      -0.08230000
C       -0.00670000      -0.03850000      -0.02030000
C        1.36840000      -0.62040000      -0.22320000
O        2.41080000       0.28940000      -0.43910000
C        0.73120000      -0.68540000       1.13440000
C        1.18270000      -0.00590000       2.43270000
C        0.36600000      -1.07360000       3.22150000
C        0.23520000      -1.91350000       1.91680000
O       -1.00500000      -2.48560000       1.58350000
H        0.65160000       2.00280000       0.23280000
H       -0.47120000       1.76680000      -1.10580000
H       -1.07610000       1.75600000       0.55660000
H       -0.81040000      -0.64800000      -0.42990000
H        1.44600000      -1.54760000      -0.79370000
H        3.17560000      -0.01040000       0.06330000
H        2.26180000      -0.08260000       2.60380000
H        0.89070000       1.03650000       2.57780000
H        0.84450000      -1.55000000       4.08000000
H       -0.61000000      -0.68980000       3.53550000
H        0.95190000      -2.74160000       1.88540000
H       -1.66090000      -1.77950000       1.58390000
