15
Properties=species:S:1:pos:R:3 gdb_4470=T pbc="F F F"
C       -0.05850000       1.52290000       0.12910000
C       -0.02900000       0.03740000       0.02700000
C       -0.02870000      -0.72480000      -1.08980000
N       -0.04900000      -0.43020000      -2.44620000
O        0.00390000      -2.07350000      -0.66560000
C        0.02170000      -1.98430000       0.67560000
N       -0.01750000      -3.16650000       1.37630000
N        0.01010000      -0.78120000       1.16120000
H        0.82270000       1.89600000       0.66280000
H       -0.08330000       1.97090000      -0.86660000
H       -0.93800000       1.85830000       0.68970000
H        0.78350000      -0.73990000      -2.93760000
H       -0.86090000      -0.80700000      -2.92500000
H        0.43840000      -3.94260000       0.91900000
H        0.25730000      -3.05230000       2.34100000
