18
Properties=species:S:1:pos:R:3 gdb_109027=T pbc="F F F"
C       -0.25530000       1.49560000      -0.01250000
C        0.09620000      -0.00310000       0.02140000
C        0.82640000      -0.45410000      -1.20560000
C        2.09870000      -0.86500000      -1.33630000
C        2.40200000      -1.30840000      -2.73400000
N        1.58740000      -2.49640000      -3.11370000
C        1.16010000      -1.11880000      -3.50880000
C        0.14520000      -0.53690000      -2.54040000
O       -0.98330000      -0.18710000      -2.79860000
H        0.64900000       2.10960000      -0.07240000
H       -0.88240000       1.72060000      -0.87820000
H       -0.80090000       1.78180000       0.89170000
H        0.69510000      -0.23020000       0.91000000
H       -0.83370000      -0.57900000       0.10370000
H        2.81880000      -0.94090000      -0.52900000
H        3.38830000      -1.18180000      -3.16520000
H        2.00340000      -2.93080000      -3.93900000
H        1.12550000      -0.84830000      -4.55680000
