21
Properties=species:S:1:pos:R:3 gdb_107701=T pbc="F F F"
C       -0.00570000       1.53480000       0.05780000
C       -0.08700000       0.00700000      -0.04930000
C       -1.49930000      -0.51550000      -0.05900000
C       -2.62650000      -0.20780000      -1.07840000
C       -3.26010000      -1.16840000      -0.05680000
O       -4.56530000      -1.61490000       0.03230000
C       -1.94120000      -2.01540000       0.10490000
C       -1.99850000      -1.91410000       1.64290000
C       -2.50970000      -0.54320000       1.15440000
H        1.03450000       1.87470000       0.05760000
H       -0.51560000       2.01840000      -0.78180000
H       -0.47510000       1.89070000       0.98080000
H        0.42120000      -0.32400000      -0.96490000
H        0.46060000      -0.45050000       0.78480000
H       -3.01510000       0.81590000      -1.09710000
H       -2.47910000      -0.58670000      -2.09690000
H       -4.76780000      -2.12330000      -0.76050000
H       -1.61980000      -2.84510000      -0.52900000
H       -2.72890000      -2.55250000       2.14700000
H       -1.04360000      -1.92660000       2.17720000
H       -2.84460000       0.32220000       1.72900000
