15
Properties=species:S:1:pos:R:3 gdb_29809=T pbc="F F F"
C       -0.05330000       1.45540000       0.04240000
N        0.00950000       0.00840000      -0.01270000
C        0.05090000      -0.75430000      -1.15990000
C        0.10490000      -2.05750000      -0.71710000
O        0.15850000      -3.16570000      -1.48410000
N        0.09850000      -2.12400000       0.63410000
C        0.04040000      -0.85710000       1.04740000
C        0.01230000      -0.42500000       2.39090000
C       -0.01230000      -0.04500000       3.53410000
H        0.82500000       1.89720000      -0.43790000
H       -0.95400000       1.82040000      -0.46030000
H       -0.07960000       1.76260000       1.08810000
H        0.03860000      -0.32000000      -2.14410000
H        0.18690000      -3.91360000      -0.87460000
H       -0.03350000       0.27460000       4.54650000
