21
Properties=species:S:1:pos:R:3 gdb_103902=T pbc="F F F"
C        0.60480000       1.27640000       0.38560000
C       -0.26290000       0.15570000      -0.20420000
C        0.36240000      -0.49200000      -1.42870000
C        0.38880000       0.36290000      -2.68080000
O        1.58950000      -1.20990000      -1.18430000
C        0.44010000      -1.95930000      -1.59940000
C       -0.08210000      -3.00540000      -0.63630000
C        0.86420000      -4.19040000      -0.55980000
O        0.53260000      -5.33870000      -0.70190000
H        1.59670000       0.89370000       0.64240000
H        0.73370000       2.10720000      -0.31440000
H        0.14740000       1.67880000       1.29400000
H       -0.43830000      -0.59620000       0.56970000
H       -1.24760000       0.55000000      -0.48470000
H        0.92970000       1.29780000      -2.50560000
H        0.88690000      -0.16490000      -3.49740000
H       -0.62850000       0.61690000      -2.99720000
H        0.50510000      -2.31790000      -2.62990000
H       -0.15540000      -2.58520000       0.37320000
H       -1.06970000      -3.36500000      -0.94110000
H        1.92140000      -3.91310000      -0.35380000
