17
Properties=species:S:1:pos:R:3 gdb_17709=T pbc="F F F"
C        0.00370000       1.52750000      -0.21890000
N        0.02640000       0.07940000      -0.04620000
C       -1.08640000      -0.50100000       0.76670000
C       -0.20130000      -1.70650000       1.20480000
C       -0.57800000      -1.53070000       2.67570000
O        0.41890000      -1.97140000       3.56950000
C       -0.51170000      -0.07560000       2.17030000
C        0.68500000      -0.42160000       1.19890000
H        0.98480000       1.86120000      -0.57300000
H       -0.73210000       1.78680000      -0.98770000
H       -0.24150000       2.09540000       0.69490000
H       -2.12630000      -0.51680000       0.43640000
H       -0.02040000      -2.61260000       0.62920000
H       -1.57400000      -1.89500000       2.96600000
H        0.17320000      -1.69450000       4.45760000
H       -0.69170000       0.84660000       2.72250000
H        1.75520000      -0.34040000       1.38510000
