21
Properties=species:S:1:pos:R:3 gdb_77657=T pbc="F F F"
C       -0.01050000       1.55770000       0.01220000
C        0.10720000       0.05000000      -0.07760000
C        0.68900000      -0.72910000      -1.20670000
C       -0.03290000      -1.85500000      -1.89270000
C        1.92340000      -0.03030000      -1.80110000
C        2.61360000      -0.01430000      -0.40260000
C        1.39720000      -0.70910000       0.20730000
C        1.45740000      -1.80240000       1.17620000
O        2.47250000      -2.20130000       1.70300000
H        0.84940000       2.07200000      -0.42250000
H       -0.90510000       1.90230000      -0.51770000
H       -0.09620000       1.87740000       1.05580000
H       -0.74980000      -0.46580000       0.35690000
H       -0.59210000      -1.47650000      -2.75790000
H        0.66470000      -2.61570000      -2.25960000
H       -0.75080000      -2.34480000      -1.22800000
H        2.44920000      -0.66930000      -2.51430000
H        1.73970000       0.93710000      -2.27900000
H        3.49810000      -0.65080000      -0.35720000
H        2.87010000       0.96440000       0.01270000
H        0.47240000      -2.27740000       1.39890000
