17
Properties=species:S:1:pos:R:3 gdb_57622=T pbc="F F F"
C        0.01080000       1.61600000       0.01230000
C        0.00660000       0.08810000       0.01180000
O        0.68030000      -0.30390000       1.19050000
C       -1.44400000      -0.47480000      -0.00080000
C       -2.22190000      -0.06350000       1.16430000
N       -2.84740000       0.26150000       2.07930000
C        0.72820000      -0.48040000      -1.24420000
C        2.12850000      -0.07530000      -1.32540000
N        3.23570000       0.24470000      -1.40190000
H        1.03910000       1.98350000       0.02220000
H       -0.49610000       2.01010000      -0.87340000
H       -0.49840000       1.98730000       0.90400000
H        0.71010000      -1.26590000       1.24540000
H       -1.96850000      -0.15150000      -0.90710000
H       -1.41390000      -1.57160000      -0.02770000
H        0.68500000      -1.57700000      -1.22980000
H        0.21380000      -0.15660000      -2.15610000
