19
Properties=species:S:1:pos:R:3 gdb_67684=T pbc="F F F"
O       -0.32220000       1.49530000      -0.04490000
C       -0.05660000       0.13510000       0.05100000
C       -1.08610000      -0.92230000      -0.02490000
C       -0.84930000      -1.74120000      -1.32400000
C        0.35140000      -1.01520000      -2.05340000
C        1.01900000      -0.55270000      -0.78290000
C        1.79690000      -1.32910000      -0.01440000
C        1.22550000      -1.45720000       1.38940000
C       -0.12810000      -0.76460000       1.23690000
H        0.43030000       1.97050000       0.32520000
H       -2.11420000      -0.69260000       0.23870000
H       -0.57730000      -2.78360000      -1.12900000
H       -1.76140000      -1.74390000      -1.93100000
H        0.95100000      -1.69540000      -2.66210000
H       -0.01670000      -0.19820000      -2.68140000
H        2.50530000      -2.05470000      -0.40320000
H        1.14860000      -2.52480000       1.63650000
H        1.81370000      -0.99860000       2.19800000
H       -0.66840000      -0.45220000       2.12620000
