18
Properties=species:S:1:pos:R:3 gdb_120124=T pbc="F F F"
C       -0.13630000       1.32300000      -0.20600000
O       -0.20020000      -0.07670000      -0.35230000
C        0.88890000      -0.59930000      -1.08400000
C        0.77410000      -2.10200000      -1.08330000
C       -0.13410000      -2.88860000      -1.97760000
N       -0.25880000      -2.31340000      -3.31850000
C        1.13530000      -2.33480000      -3.52370000
O        1.81300000      -1.94900000      -4.43270000
C        1.37100000      -3.00280000      -2.17200000
H        0.77030000       1.63640000       0.33530000
H       -0.14690000       1.83780000      -1.17990000
H       -1.01430000       1.63200000       0.36620000
H        0.89620000      -0.19820000      -2.10950000
H        1.84540000      -0.30300000      -0.62180000
H        0.87580000      -2.53870000      -0.09130000
H       -0.82660000      -3.64740000      -1.63910000
H       -0.83870000      -1.51090000      -3.53720000
H        2.04510000      -3.81770000      -1.95070000
