17
Properties=species:S:1:pos:R:3 gdb_39782=T pbc="F F F"
C       -0.02260000       1.48660000       0.00960000
O        1.23190000       0.76430000      -0.00710000
C        0.05050000       0.03490000       0.00180000
C       -0.51620000      -0.97390000       1.01500000
N       -1.65410000      -1.06820000       0.01440000
C       -0.53750000      -0.96410000      -1.00900000
C        0.28760000      -2.24890000      -0.75390000
N        1.55780000      -2.03220000      -0.02400000
C        0.30320000      -2.25610000       0.73020000
H       -0.24030000       2.01680000       0.93500000
H       -0.25970000       2.02580000      -0.90580000
H       -0.76690000      -0.72100000       2.04440000
H       -2.05760000      -2.00710000       0.01410000
H       -0.80970000      -0.70120000      -2.03030000
H        0.14790000      -3.13410000      -1.36400000
H        2.09480000      -2.89860000      -0.03390000
H        0.17620000      -3.14720000       1.33450000
