19
Properties=species:S:1:pos:R:3 gdb_87794=T pbc="F F F"
O        0.29770000       1.30630000       0.34480000
C        0.08370000      -0.07190000       0.24610000
C       -0.76290000      -0.83550000       1.23400000
C       -1.23190000      -0.63160000      -0.19120000
C       -2.45780000       0.19880000      -0.61940000
C       -2.85330000      -0.98570000      -1.51260000
C       -4.18150000      -1.54670000      -1.75810000
O       -3.45360000      -0.85500000      -2.78500000
C       -1.52800000      -1.71300000      -1.24690000
H       -0.51010000       1.72180000       0.66320000
H        0.98850000      -0.54850000      -0.11920000
H       -0.43820000      -1.82520000       1.54200000
H       -1.26800000      -0.27000000       2.01350000
H       -3.17450000       0.47930000       0.15850000
H       -2.19210000       1.08840000      -1.20160000
H       -4.29800000      -2.61920000      -1.91100000
H       -5.06650000      -1.03100000      -1.38640000
H       -0.85420000      -1.68460000      -2.10940000
H       -1.60530000      -2.74330000      -0.88770000
