20
Properties=species:S:1:pos:R:3 gdb_85678=T pbc="F F F"
C       -0.74520000       1.35930000      -0.02690000
C        0.02980000       0.06060000      -0.06960000
O        1.28400000       0.18790000      -0.79530000
C        2.00410000      -0.52160000       0.22140000
C        3.22980000       0.16330000       0.63710000
N        4.19680000       0.69040000       0.98770000
C        0.77170000      -0.49730000       1.18930000
C        0.90640000       0.47090000       2.36180000
C        0.30870000      -1.87330000       1.65690000
H       -0.16250000       2.16720000       0.42070000
H       -1.01370000       1.65740000      -1.04520000
H       -1.67240000       1.23310000       0.54240000
H       -0.58710000      -0.71990000      -0.53820000
H        2.27330000      -1.53640000      -0.10350000
H        1.28400000       1.44840000       2.05350000
H       -0.06230000       0.61590000       2.85100000
H        1.60150000       0.07220000       3.10750000
H        1.00800000      -2.29770000       2.38540000
H       -0.67150000      -1.80500000       2.14130000
H        0.22160000      -2.57540000       0.82150000
