19
Properties=species:S:1:pos:R:3 gdb_51618=T pbc="F F F"
O       -0.32340000       0.03990000       0.33340000
C       -0.09000000       1.17570000       0.01390000
C        1.30600000       1.76260000      -0.13060000
N        1.35770000       2.72630000      -1.20290000
C        1.47310000       2.23290000      -2.59620000
C        2.48860000       3.34820000      -2.85960000
C        3.49610000       3.47360000      -3.92670000
N        2.36970000       4.42910000      -3.82680000
C        2.56220000       3.58020000      -1.34960000
H       -0.89930000       1.91100000      -0.19620000
H        1.51740000       2.28640000       0.81370000
H        2.03300000       0.93500000      -0.21810000
H        1.90800000       1.22290000      -2.67120000
H        0.53740000       2.25740000      -3.16840000
H        4.47360000       3.89820000      -3.71310000
H        3.48970000       2.73410000      -4.72440000
H        1.65830000       4.20790000      -4.52010000
H        2.43310000       4.61160000      -1.00640000
H        3.46660000       3.15060000      -0.89170000
