19
Properties=species:S:1:pos:R:3 gdb_93050=T pbc="F F F"
O        0.02420000       1.40330000      -0.01510000
C        0.05340000      -0.01430000       0.02670000
C        0.79640000      -0.53480000       1.26870000
C        0.64180000      -2.02310000       1.44030000
C       -0.44540000      -2.68490000       1.04090000
C       -1.62400000      -2.00680000       0.41190000
C       -2.62310000      -1.32840000       1.39590000
O       -2.19760000      -0.00910000       0.99330000
C       -1.36610000      -0.55480000      -0.06450000
H       -0.63620000       1.67510000       0.63530000
H        0.59790000      -0.33560000      -0.86950000
H        1.85100000      -0.25140000       1.19920000
H        0.39880000      -0.01300000       2.15070000
H        1.45320000      -2.56240000       1.92210000
H       -0.52040000      -3.75750000       1.20160000
H       -2.10630000      -2.65000000      -0.32720000
H       -3.68310000      -1.49610000       1.16680000
H       -2.44400000      -1.51280000       2.46030000
H       -1.79290000      -0.31490000      -1.04630000
