21
Properties=species:S:1:pos:R:3 gdb_75902=T pbc="F F F"
C       -0.16570000       1.41040000       0.01570000
N       -0.15380000      -0.03370000       0.01700000
C        0.16210000      -0.73660000      -1.13070000
O        0.24390000      -0.29150000      -2.25680000
N        0.38340000      -2.05750000      -0.74740000
C       -0.12150000      -2.27630000       0.59840000
C       -0.01160000      -0.85870000       1.22450000
C        1.36900000      -0.66160000       1.87980000
C       -1.13370000      -0.59400000       2.23170000
H        0.72170000       1.84060000       0.49990000
H       -0.17880000       1.72790000      -1.02860000
H       -1.05690000       1.80100000       0.51860000
H        0.23430000      -2.74920000      -1.46540000
H       -1.16760000      -2.61650000       0.60280000
H        0.48130000      -3.00550000       1.14770000
H        2.16780000      -0.91570000       1.17720000
H        1.50910000       0.37420000       2.20250000
H        1.46830000      -1.30050000       2.76330000
H       -1.08990000      -1.32270000       3.04780000
H       -1.04330000       0.40220000       2.67560000
H       -2.11320000      -0.67020000       1.75110000
