19
Properties=species:S:1:pos:R:3 gdb_111623=T pbc="F F F"
O        0.79700000      -0.33950000       1.20840000
C        0.02980000       0.12640000       0.11640000
C       -1.34060000      -0.53420000      -0.01500000
C       -1.87360000      -1.19040000      -1.26760000
C       -0.91770000      -1.70200000      -2.35670000
C       -0.12860000      -2.84940000      -1.73600000
O        0.73160000      -2.49760000      -0.63710000
C       -0.57190000      -3.03810000      -0.34500000
C       -1.63860000      -2.02570000      -0.01450000
H        1.13240000      -1.19950000       0.92940000
H       -0.13310000       1.19510000       0.29470000
H        0.59010000       0.03980000      -0.82160000
H       -2.11280000       0.00850000       0.52580000
H       -2.87770000      -0.93060000      -1.58550000
H       -1.50200000      -2.09880000      -3.19430000
H       -0.25890000      -0.92880000      -2.76680000
H        0.25860000      -3.64860000      -2.36360000
H       -0.56330000      -3.99910000       0.16100000
H       -2.46010000      -2.37370000       0.60120000
