14
Properties=species:S:1:pos:R:3 gdb_1395=T pbc="F F F"
C       -0.06100000       1.58040000      -0.02780000
C       -0.03260000       0.04230000       0.01850000
C        0.76030000      -0.50520000       1.24170000
C        2.16540000      -0.12420000       1.20420000
C        3.32290000       0.19440000       1.14950000
C       -1.39270000      -0.50530000       0.03530000
N       -2.46500000      -0.93560000       0.06190000
H        0.96240000       1.96140000      -0.04920000
H       -0.58870000       1.93260000      -0.91700000
H       -0.56670000       1.98500000       0.85360000
H        0.45660000      -0.33070000      -0.88890000
H        0.29250000      -0.13500000       2.16200000
H        0.67210000      -1.59700000       1.26610000
H        4.34880000       0.46730000       1.11710000
