15
Properties=species:S:1:pos:R:3 gdb_9580=T pbc="F F F"
C       -0.11090000       1.56430000       0.03480000
C       -0.03840000       0.05540000       0.05870000
C        1.26000000      -0.66210000      -0.24240000
C        0.73910000      -0.68340000       1.17030000
C        1.38710000       0.08130000       2.19690000
N        1.90800000       0.69860000       3.02500000
C       -1.27440000      -0.66710000      -0.36360000
O       -2.28410000      -0.12530000      -0.73030000
H        0.81210000       2.01310000       0.40800000
H       -0.28390000       1.91280000      -0.98690000
H       -0.94190000       1.91840000       0.65010000
H        1.22580000      -1.59740000      -0.79090000
H        2.12060000      -0.03850000      -0.45250000
H        0.30850000      -1.61670000       1.52070000
H       -1.19420000      -1.77950000      -0.32100000
