20
Properties=species:S:1:pos:R:3 gdb_110912=T pbc="F F F"
C        1.24360000       0.95500000       0.71660000
C        0.09370000       0.29010000      -0.05170000
C        0.60850000      -0.40620000      -1.29470000
C        1.01690000      -1.82140000      -1.39620000
C        0.11090000      -2.75530000      -0.59030000
C       -1.04830000      -2.19080000      -1.46670000
C       -2.30680000      -1.65490000      -0.83760000
O       -2.73840000      -0.53770000      -0.95560000
N       -0.14510000      -1.27330000      -2.23180000
H        1.98340000       0.21670000       1.04400000
H        1.76360000       1.69080000       0.09370000
H        0.87100000       1.47460000       1.60410000
H       -0.42670000      -0.40470000       0.61350000
H       -0.64980000       1.03670000      -0.34740000
H        1.23060000       0.25500000      -1.89790000
H        1.94350000      -2.13750000      -1.86480000
H        0.30000000      -3.81440000      -0.76720000
H        0.06900000      -2.58210000       0.48900000
H       -1.38850000      -2.97250000      -2.16040000
H       -2.85640000      -2.42800000      -0.24680000
