21
Properties=species:S:1:pos:R:3 gdb_82973=T pbc="F F F"
C       -0.10050000       1.62080000      -0.01120000
C        0.05020000       0.10600000      -0.02550000
C        0.57360000      -0.61440000      -1.30870000
C        1.73560000       0.07370000      -2.06600000
C        2.73850000      -0.45910000      -1.00550000
O        3.08890000       0.51620000      -0.02800000
C        2.39490000       0.26360000       1.19310000
C        1.17550000      -0.57530000       0.83440000
C        1.62230000      -1.37160000      -0.41860000
H        0.84310000       2.12460000      -0.24000000
H       -0.84170000       1.94440000      -0.75060000
H       -0.43870000       1.97300000       0.97000000
H       -0.90760000      -0.34870000       0.24890000
H       -0.18250000      -1.11530000      -1.91450000
H        1.89860000      -0.40090000      -3.03850000
H        1.71150000       1.15770000      -2.20220000
H        3.64920000      -0.92930000      -1.38830000
H        3.04270000      -0.28540000       1.89510000
H        2.14840000       1.22960000       1.64750000
H        0.80510000      -1.14620000       1.68820000
H        1.76540000      -2.45010000      -0.38360000
