20
Properties=species:S:1:pos:R:3 gdb_109609=T pbc="F F F"
C        0.03140000       1.52200000      -0.16370000
C        0.00250000       0.03780000       0.22270000
C       -1.38570000      -0.55750000       0.09930000
C       -1.89000000      -1.22970000      -1.15970000
N       -0.96350000      -1.43480000      -2.23840000
C       -1.59340000      -2.06470000       0.10760000
N       -0.43080000      -2.93020000       0.15080000
C       -2.73140000      -2.56710000       0.83190000
N       -3.65690000      -2.97220000       1.39660000
H        1.03760000       1.93640000      -0.05010000
H       -0.27630000       1.67390000      -1.20440000
H       -0.64500000       2.11010000       0.46610000
H        0.70930000      -0.52020000      -0.39590000
H        0.34200000      -0.08170000       1.25800000
H       -2.15070000      -0.00040000       0.63410000
H       -2.94180000      -1.07790000      -1.40050000
H       -1.34920000      -2.06900000      -2.92970000
H       -0.74700000      -0.56320000      -2.71020000
H       -0.73880000      -3.89830000       0.14260000
H        0.08240000      -2.78140000      -0.71750000
