23
Properties=species:S:1:pos:R:3 gdb_99103=T pbc="F F F"
C       -1.24880000       2.14660000       0.32440000
C       -1.14220000       0.63990000       0.53900000
C       -1.87860000      -0.18380000      -0.50760000
O       -2.43790000       0.33270000      -1.45000000
C       -1.89690000      -1.69930000      -0.30610000
C       -3.23750000      -2.19000000       0.24650000
C       -4.42460000      -2.01190000      -0.68210000
C       -3.21070000      -3.42670000       1.11320000
C       -3.47310000      -2.07580000       1.73680000
H       -0.68520000       2.68940000       1.08840000
H       -0.86200000       2.42670000      -0.65860000
H       -2.29120000       2.47320000       0.36570000
H       -0.09310000       0.30950000       0.53430000
H       -1.52360000       0.34510000       1.52650000
H       -1.71570000      -2.16590000      -1.28140000
H       -1.08950000      -1.99880000       0.37030000
H       -4.28040000      -2.57750000      -1.61010000
H       -5.34330000      -2.37270000      -0.20910000
H       -4.56610000      -0.96390000      -0.95830000
H       -4.04010000      -4.12100000       1.02820000
H       -2.25480000      -3.90110000       1.30950000
H       -2.69270000      -1.64950000       2.35900000
H       -4.47810000      -1.85330000       2.07890000
