19
Properties=species:S:1:pos:R:3 gdb_75512=T pbc="F F F"
C       -0.03430000       1.49810000      -0.22990000
C        0.00570000       0.01750000       0.06280000
C       -1.08610000      -0.74410000      -0.10590000
C       -1.25930000      -2.22730000       0.08750000
C       -0.69410000      -2.78610000       1.39800000
C        0.80390000      -2.75240000       1.48900000
C        1.63950000      -1.81120000       1.03630000
C        1.36610000      -0.47950000       0.44050000
O        2.32220000       0.26890000       0.28260000
H        0.65690000       1.75240000      -1.03850000
H       -1.04210000       1.81620000      -0.50740000
H        0.29190000       2.07790000       0.63980000
H       -1.97720000      -0.23120000      -0.46470000
H       -2.32890000      -2.45710000       0.04440000
H       -0.80200000      -2.76720000      -0.75420000
H       -1.12500000      -2.23840000       2.24930000
H       -1.02840000      -3.82330000       1.51180000
H        1.25730000      -3.60320000       1.99470000
H        2.70740000      -1.94740000       1.18470000
