19
Properties=species:S:1:pos:R:3 gdb_105754=T pbc="F F F"
C        0.06330000       1.55050000       0.15600000
C        0.01280000       0.02880000       0.01170000
C        0.71980000      -0.49130000      -1.23750000
O        2.09200000      -0.14760000      -1.18390000
C        2.77310000      -1.11270000      -1.97650000
C        1.84730000      -2.35600000      -1.93080000
O        0.69220000      -1.90930000      -1.22650000
C        0.11170000       0.01520000      -2.49200000
C       -0.37700000       0.41530000      -3.51480000
H        1.09730000       1.90200000       0.20150000
H       -0.42700000       2.04460000      -0.68780000
H       -0.44530000       1.86180000       1.07280000
H        0.50050000      -0.46150000       0.85970000
H       -1.02190000      -0.32620000      -0.02480000
H        2.90440000      -0.75110000      -3.00380000
H        3.75510000      -1.28250000      -1.52910000
H        1.58370000      -2.69840000      -2.93860000
H        2.27770000      -3.19250000      -1.37330000
H       -0.81230000       0.77030000      -4.41660000
