17
Properties=species:S:1:pos:R:3 gdb_97487=T pbc="F F F"
C       -0.05050000       1.59550000       0.05870000
C       -0.00250000       0.05590000       0.01180000
C        0.67130000      -0.45790000      -1.17150000
C        1.23470000      -0.86790000      -2.16180000
C        1.86750000      -1.32720000      -3.27480000
C        2.43060000      -1.73330000      -4.26510000
C        3.11360000      -2.21270000      -5.46490000
C        3.17950000      -3.67290000      -5.55810000
C        3.23970000      -4.86850000      -5.64540000
H        0.95880000       2.01520000       0.05910000
H       -0.58260000       1.99360000      -0.80910000
H       -0.56520000       1.92950000       0.96430000
H        0.50330000      -0.32390000       0.90920000
H       -1.02390000      -0.34530000       0.04890000
H        2.60900000      -1.81470000      -6.35680000
H        4.13250000      -1.80090000      -5.49510000
H        3.28990000      -5.92670000      -5.71690000
