25
Properties=species:S:1:pos:R:3 gdb_85854=T pbc="F F F"
C       -1.22010000       0.42070000      -1.33210000
C       -0.00360000      -0.32960000      -0.80800000
C        1.41880000       0.15330000      -1.19500000
C        1.92900000      -0.24750000       0.22390000
C        2.52730000      -1.66020000       0.22760000
C        2.89470000       0.72000000       0.90500000
C        0.42560000      -0.24470000       0.69630000
C       -0.02580000       1.02810000       1.40800000
O        0.11880000      -1.37590000       1.49760000
H       -1.15180000       1.49740000      -1.14420000
H       -1.32030000       0.28470000      -2.41470000
H       -2.14800000       0.05970000      -0.87250000
H       -0.10590000      -1.39280000      -1.04750000
H        1.89980000      -0.33520000      -2.04680000
H        1.45240000       1.23680000      -1.35370000
H        3.49480000      -1.65220000      -0.28720000
H        2.68450000      -2.01710000       1.24930000
H        1.88220000      -2.38530000      -0.27420000
H        2.53150000       1.75140000       0.89010000
H        3.07020000       0.43830000       1.94970000
H        3.86530000       0.70690000       0.39570000
H        0.20780000       1.93290000       0.84060000
H       -1.11300000       1.01360000       1.55720000
H        0.45080000       1.10460000       2.38940000
H       -0.78850000      -1.28750000       1.80760000
