23
Properties=species:S:1:pos:R:3 gdb_106621=T pbc="F F F"
C       -0.01140000       1.55330000       0.01400000
C        0.08880000       0.02330000       0.00520000
C        0.66120000      -0.53270000      -1.27370000
C        0.03880000      -0.36920000      -2.68760000
C        1.09950000      -1.46200000      -3.01960000
C        2.37820000      -0.67070000      -2.72790000
O        2.01580000      -0.05610000      -1.47290000
C        0.78610000      -2.05430000      -1.60150000
C        1.78350000      -2.91830000      -0.84810000
H        0.97090000       2.00260000      -0.15050000
H       -0.68110000       1.91070000      -0.77540000
H       -0.40110000       1.91390000       0.97060000
H        0.72040000      -0.31140000       0.83750000
H       -0.90080000      -0.42270000       0.16120000
H       -0.98770000      -0.73390000      -2.75350000
H        0.14000000       0.60680000      -3.16850000
H        1.06800000      -2.06240000      -3.92860000
H        3.27010000      -1.29490000      -2.60050000
H        2.59080000       0.09880000      -3.48000000
H       -0.20400000      -2.51990000      -1.61480000
H        2.71730000      -2.38150000      -0.66330000
H        1.37790000      -3.21850000       0.12400000
H        2.01480000      -3.83450000      -1.40290000
