16
Properties=species:S:1:pos:R:3 gdb_64885=T pbc="F F F"
O        0.31340000       1.53120000      -0.29470000
C        0.00510000       0.21790000       0.00990000
C        0.12630000      -0.19660000       1.52260000
N       -1.24700000      -0.69220000       1.44490000
C       -1.51990000      -0.14290000       0.12000000
C       -2.11240000      -1.17580000       2.36780000
O       -3.29230000      -1.36450000       2.16190000
C        0.75150000      -0.73140000      -0.89970000
O        1.50110000      -0.32720000      -1.75410000
H        0.94690000       1.49400000      -1.03060000
H        0.88160000      -0.94740000       1.77930000
H        0.25530000       0.69020000       2.15250000
H       -2.14220000       0.75760000       0.13270000
H       -1.92730000      -0.86010000      -0.59910000
H       -1.61030000      -1.40030000       3.33110000
H        0.56970000      -1.81240000      -0.73640000
