16
Properties=species:S:1:pos:R:3 gdb_124912=T pbc="F F F"
C        0.06080000       1.58300000       0.08070000
C        0.08920000       0.08720000      -0.01240000
C       -0.88800000      -0.85500000       0.69270000
C        0.58550000      -0.96670000       0.98840000
N        1.27480000      -1.62800000      -0.13730000
N        1.45730000      -2.86660000      -0.68150000
C        1.18010000      -2.60560000      -1.95650000
N        0.69100000      -1.34570000      -2.24930000
C        0.76630000      -0.78420000      -1.06230000
H        1.05980000       2.00760000      -0.05630000
H       -0.59420000       2.00610000      -0.68790000
H       -0.31850000       1.90460000       1.05520000
H       -1.49430000      -0.40160000       1.47360000
H       -1.38240000      -1.64700000       0.13960000
H        1.05700000      -0.85000000       1.95450000
H        1.34710000      -3.34600000      -2.72630000
