19
Properties=species:S:1:pos:R:3 gdb_41583=T pbc="F F F"
C        0.13010000       1.48210000      -0.26440000
O        1.47550000       1.43580000       0.26700000
C        1.30560000       0.08640000       0.74410000
C       -0.06620000      -0.02690000      -0.01620000
C        0.69170000      -0.85880000      -1.04400000
C        0.94190000      -1.01280000      -2.34010000
C        2.41180000      -1.40090000      -2.51240000
C        3.07110000      -0.91800000      -1.17500000
C        1.91040000      -1.02700000      -0.17590000
H       -0.51420000       2.11890000       0.35680000
H        0.10130000       1.82650000      -1.30310000
H        1.43950000       0.00670000       1.82680000
H       -0.99800000      -0.38460000       0.41970000
H        0.27680000      -0.82620000      -3.17570000
H        2.53820000      -2.48420000      -2.65300000
H        2.85900000      -0.92200000      -3.39030000
H        3.96180000      -1.49230000      -0.90590000
H        3.35570000       0.13470000      -1.27560000
H        1.91280000      -1.96990000       0.39010000
