15
Properties=species:S:1:pos:R:3 gdb_95616=T pbc="F F F"
O       -0.01150000       1.42400000       0.10690000
C       -0.05840000       0.03330000       0.01270000
C       -1.48450000      -0.51140000      -0.11830000
C       -1.42610000      -2.03050000      -0.13630000
O       -0.58560000      -2.57070000      -1.17830000
C        0.51930000      -1.93930000      -1.62710000
O        1.27510000      -2.47680000      -2.38150000
C        0.72570000      -0.46820000      -1.18350000
O        1.45650000       0.25720000      -1.80900000
H        0.66430000       1.71420000      -0.52530000
H        0.40040000      -0.43680000       0.90580000
H       -2.09170000      -0.17730000       0.72810000
H       -1.94780000      -0.12520000      -1.03310000
H       -1.05320000      -2.41310000       0.82210000
H       -2.40930000      -2.46920000      -0.31460000
