15
Properties=species:S:1:pos:R:3 gdb_44245=T pbc="F F F"
N       -0.08710000       1.22940000      -0.49290000
C       -0.01860000       0.04640000      -0.09370000
O        1.05490000      -0.70620000       0.34340000
C        0.19130000      -1.87250000       0.57960000
C       -1.03240000      -1.06440000       0.10530000
C       -1.91230000      -0.93070000       1.35520000
O       -1.10120000      -1.34890000       2.46880000
C       -0.03200000      -2.09430000       2.05570000
N        0.67830000      -2.83320000       2.78880000
H        0.82320000       1.69190000      -0.47450000
H        0.55040000      -2.74680000       0.04180000
H       -1.57130000      -1.38040000      -0.78580000
H       -2.23930000       0.09490000       1.53690000
H       -2.79010000      -1.58360000       1.29710000
H        0.34320000      -2.81900000       3.75420000
