21
Properties=species:S:1:pos:R:3 gdb_60305=T pbc="F F F"
C        0.01300000       1.53920000      -0.02050000
C        0.02240000       0.00570000       0.04060000
C        0.85090000      -0.48010000       1.23900000
C       -1.41910000      -0.53350000       0.06070000
C       -1.52630000      -2.05350000      -0.06070000
C       -2.95730000      -2.55270000      -0.16140000
O       -3.92500000      -1.82350000      -0.15860000
C       -3.10040000      -3.99870000      -0.26520000
C       -3.19770000      -5.19570000      -0.34900000
H        1.03050000       1.93990000      -0.07590000
H       -0.53970000       1.90080000      -0.89370000
H       -0.46230000       1.96270000       0.87230000
H        0.50570000      -0.36390000      -0.87620000
H        1.86280000      -0.06320000       1.20800000
H        0.39160000      -0.16430000       2.18360000
H        0.94730000      -1.56990000       1.26320000
H       -1.92020000      -0.20920000       0.98150000
H       -1.98760000      -0.08000000      -0.75860000
H       -0.98750000      -2.42330000      -0.94540000
H       -1.06150000      -2.57190000       0.78830000
H       -3.30390000      -6.25060000      -0.42380000
