15
Properties=species:S:1:pos:R:3 gdb_24569=T pbc="F F F"
O       -0.02380000       1.25590000      -0.26790000
C        0.96400000       2.16050000       0.06700000
C        2.27240000       2.06930000      -0.17820000
C        3.06140000       0.93660000      -0.64860000
C        3.28130000      -0.20970000       0.02920000
N        2.86060000      -0.50390000       1.30620000
C        1.63750000      -0.59220000       1.66630000
N        0.53140000      -0.75940000       0.87540000
C       -0.07810000      -0.05680000       0.02930000
H        0.51070000       3.08170000       0.41460000
H        2.81330000       3.00040000      -0.00810000
H        3.66810000       1.10830000      -1.53450000
H        3.99950000      -0.92010000      -0.37680000
H        1.43520000      -0.74990000       2.72700000
H       -0.88200000      -0.49920000      -0.55680000
