20
Properties=species:S:1:pos:R:3 gdb_94592=T pbc="F F F"
C        0.50230000       1.55960000      -0.21350000
C        0.15610000       0.07930000      -0.02860000
N        0.72450000      -0.67730000      -1.15490000
H        0.39380000      -1.63830000      -1.13260000
H        0.39960000      -0.28600000      -2.03420000
C        2.22280000      -0.58980000       1.40680000
C        0.68800000      -0.55900000       1.26660000
C        0.26520000       0.07220000       2.59700000
C        1.40200000      -0.29380000       3.54730000
O        2.48390000      -0.68030000       2.81940000
O        1.41150000      -0.26080000       4.74310000
H        1.58150000       1.71410000      -0.29600000
H        0.04510000       1.93360000      -1.13600000
H        0.11910000       2.17280000       0.60610000
H       -0.94570000       0.00710000       0.01600000
H        2.68620000      -1.44950000       0.92330000
H        2.69580000       0.31970000       1.02280000
H        0.34140000      -1.60150000       1.27210000
H        0.21720000       1.16610000       2.54620000
H       -0.68760000      -0.27910000       2.99500000
