18
Properties=species:S:1:pos:R:3 gdb_100605=T pbc="F F F"
C       -1.11060000       0.75200000       1.16870000
O       -0.42130000      -0.01780000       0.19750000
C       -1.23380000      -0.81760000      -0.64600000
C       -0.60930000      -0.85380000      -2.03180000
C       -1.32940000      -2.22610000      -0.04910000
O       -0.87860000      -3.23120000      -0.52230000
O       -2.00030000      -2.17760000       1.15070000
C       -2.11230000      -3.33550000       1.88210000
N       -2.72470000      -3.27780000       2.97860000
H       -0.35990000       1.38010000       1.65400000
H       -1.86510000       1.39980000       0.69770000
H       -1.60180000       0.12740000       1.92240000
H       -2.25370000      -0.40640000      -0.69090000
H        0.40480000      -1.25530000      -1.97680000
H       -1.19270000      -1.48760000      -2.70420000
H       -0.56910000       0.15940000      -2.43770000
H       -1.63790000      -4.18970000       1.39920000
H       -2.73540000      -4.19800000       3.41660000
