16
Properties=species:S:1:pos:R:3 gdb_36624=T pbc="F F F"
N        0.25760000      -0.03580000      -1.52430000
C        0.08930000       0.58460000      -0.56450000
C       -0.13200000       1.36030000       0.66990000
O        1.02110000       2.05270000       1.11070000
C        1.32050000       3.19480000       0.38880000
C        1.97690000       3.20200000      -0.97670000
C        2.64540000       3.87240000       0.19390000
O        2.09190000       5.17190000       0.42010000
C        0.79480000       4.59180000       0.72710000
H       -0.97990000       2.03960000       0.51000000
H       -0.40270000       0.66710000       1.47150000
H        2.41160000       2.24810000      -1.25660000
H        1.57930000       3.79730000      -1.79400000
H        3.64510000       3.66480000       0.55470000
H       -0.00820000       5.01430000       0.11270000
H        0.56190000       4.70500000       1.79190000
