18
Properties=species:S:1:pos:R:3 gdb_17433=T pbc="F F F"
C       -0.00800000       1.61270000       0.00350000
C        0.09450000       0.09240000      -0.00680000
C        0.80720000      -0.65480000      -1.13630000
C        2.29550000      -0.77930000      -0.76080000
C        2.49590000      -0.11630000       0.60130000
C        1.08220000      -0.67410000       0.93760000
O        0.72270000      -1.02450000       2.23090000
C        1.27620000      -1.74510000      -0.20670000
H        0.95170000       2.09250000      -0.20840000
H       -0.71980000       1.95750000      -0.75460000
H       -0.36580000       1.98040000       0.97310000
H       -0.89540000      -0.35530000       0.14000000
H        0.48520000      -0.76460000      -2.16430000
H        3.04430000      -0.97700000      -1.51660000
H        3.25330000      -0.64660000       1.18540000
H        2.66720000       0.96450000       0.66300000
H        0.71890000      -0.22720000       2.77250000
H        1.18950000      -2.82070000      -0.23390000
