18
Properties=species:S:1:pos:R:3 gdb_30656=T pbc="F F F"
C        0.06460000       1.52810000      -0.19140000
C        0.01950000       0.00380000      -0.07350000
C       -1.41460000      -0.53740000       0.07180000
O       -2.24720000      -0.12820000      -1.01290000
C       -1.44420000      -2.02010000       0.24950000
C       -1.85180000      -2.87790000       1.21520000
N       -1.63010000      -4.18880000       0.80380000
C       -1.11400000      -4.06320000      -0.37200000
O       -0.96020000      -2.78320000      -0.78900000
H        1.08980000       1.87960000      -0.33940000
H       -0.54350000       1.86760000      -1.03340000
H       -0.32510000       2.00560000       0.71450000
H        0.47750000      -0.46140000      -0.95610000
H        0.60530000      -0.33350000       0.79010000
H       -1.87430000      -0.09640000       0.96360000
H       -1.93760000      -0.58710000      -1.80220000
H       -2.28910000      -2.65110000       2.17450000
H       -0.79670000      -4.83620000      -1.05420000
