20
Properties=species:S:1:pos:R:3 gdb_75794=T pbc="F F F"
C       -0.26620000       1.45990000      -0.05580000
C       -0.02490000      -0.04360000      -0.07730000
C        1.20540000      -0.52290000      -0.82070000
N        1.62720000      -0.39910000      -1.99550000
O        1.75800000      -1.15360000       0.27290000
C        0.64820000      -0.74700000       1.13440000
C        0.97660000      -0.01270000       2.44850000
C       -0.14110000      -0.84780000       3.13510000
C       -0.08270000      -1.83810000       1.93750000
H        0.62890000       2.00500000       0.25700000
H       -0.53100000       1.80540000      -1.05890000
H       -1.08450000       1.72110000       0.62290000
H       -0.92660000      -0.57120000      -0.40420000
H        2.53040000      -0.86120000      -2.11610000
H        1.97260000      -0.29920000       2.79700000
H        0.89660000       1.07610000       2.46320000
H        0.07640000      -1.25110000       4.12510000
H       -1.09050000      -0.30810000       3.17880000
H       -1.02090000      -2.22270000       1.52960000
H        0.58980000      -2.67730000       2.13570000
