17
Properties=species:S:1:pos:R:3 gdb_15653=T pbc="F F F"
C       -0.29140000       1.53190000      -0.14040000
C        0.04580000       0.05240000      -0.02590000
O        1.06370000      -0.27240000      -1.02580000
C        2.09930000      -0.79880000      -0.34270000
N        2.02140000      -0.95620000       0.91210000
C        0.68510000      -0.45590000       1.30510000
C        0.86590000       0.55090000       2.44770000
O        1.50350000      -0.06830000       3.54320000
H        0.58240000       2.15890000       0.05350000
H       -0.65480000       1.75410000      -1.14720000
H       -1.07750000       1.80080000       0.57170000
H       -0.83380000      -0.54540000      -0.28200000
H        2.95670000      -1.05610000      -0.95570000
H        0.11280000      -1.29850000       1.70990000
H        1.43780000       1.42110000       2.08930000
H       -0.10530000       0.91130000       2.80400000
H        2.26290000      -0.53640000       3.17220000
