21
Properties=species:S:1:pos:R:3 gdb_100740=T pbc="F F F"
C        0.03200000       1.48600000       0.20100000
O        0.30370000       0.11930000      -0.00990000
C        0.70820000      -0.60620000       1.14400000
C       -0.40000000      -0.75170000       2.18640000
C        1.17910000      -1.98480000       0.63550000
O        0.10550000      -2.80970000       0.28500000
C        2.12600000      -1.83580000      -0.56510000
C        3.36720000      -0.99110000      -0.41270000
O        1.85070000      -2.41120000      -1.59540000
H        0.87010000       1.99560000       0.70320000
H       -0.11410000       1.93710000      -0.78360000
H       -0.87680000       1.64900000       0.79600000
H        1.57470000      -0.09780000       1.60320000
H       -0.04280000      -1.34440000       3.03440000
H       -0.71620000       0.22080000       2.57240000
H       -1.25630000      -1.26320000       1.74320000
H        1.75830000      -2.45000000       1.45290000
H        0.23030000      -2.98930000      -0.66210000
H        3.85150000      -1.15630000       0.55440000
H        4.06250000      -1.20790000      -1.22470000
H        3.07910000       0.06440000      -0.46410000
