17
Properties=species:S:1:pos:R:3 gdb_45120=T pbc="F F F"
O       -0.18930000       0.07860000      -0.49110000
C       -0.09720000       1.20570000      -0.07970000
C       -1.26640000       2.17830000      -0.04730000
C       -1.23180000       3.16000000       1.10920000
C       -0.72110000       2.73520000       2.46610000
C        0.10420000       3.65890000       1.60130000
C        1.36700000       3.16140000       0.92270000
C        1.29040000       1.72360000       0.43170000
O        2.24040000       0.98550000       0.40460000
H       -1.23380000       2.73290000      -0.99840000
H       -2.18900000       1.58980000      -0.06470000
H       -2.04920000       3.87440000       1.10500000
H       -1.19960000       3.14690000       3.34730000
H       -0.38510000       1.70930000       2.59430000
H        0.15310000       4.69680000       1.91580000
H        1.57330000       3.78060000       0.03560000
H        2.24610000       3.24540000       1.56920000
