18
Properties=species:S:1:pos:R:3 gdb_9694=T pbc="F F F"
C       -0.04160000       1.53570000       0.01000000
C       -0.00310000      -0.00860000       0.00250000
C        0.89630000      -0.50260000      -1.18550000
C        2.23600000      -0.74350000      -0.53830000
C        2.15850000      -0.75190000       0.79050000
C        0.75240000      -0.51820000       1.28060000
C       -1.36270000      -0.53430000      -0.08020000
C       -2.48560000      -0.95990000      -0.14840000
H        0.97670000       1.93270000       0.07190000
H       -0.50960000       1.91690000      -0.90200000
H       -0.61270000       1.90570000       0.86620000
H        0.49910000      -1.42560000      -1.62590000
H        0.92840000       0.23870000      -1.99220000
H        3.13640000      -0.92050000      -1.11620000
H        2.98580000      -0.93690000       1.46690000
H        0.69000000       0.21280000       2.09490000
H        0.30740000      -1.44640000       1.66010000
H       -3.47520000      -1.34000000      -0.20850000
