15
Properties=species:S:1:pos:R:3 gdb_42874=T pbc="F F F"
O        0.00430000       0.00070000       0.21240000
C       -0.01360000       1.18030000       0.04850000
C       -1.10090000       2.28940000       0.03410000
C       -0.03000000       3.13990000       0.79620000
C        1.04280000       2.31810000       0.00570000
N        1.09920000       2.78050000      -1.38200000
C       -0.06780000       3.17370000      -2.02450000
O       -0.08990000       3.78920000      -3.06960000
N       -1.20640000       2.74970000      -1.35140000
H       -2.08440000       2.09990000       0.46050000
H       -0.04670000       4.21640000       0.61980000
H       -0.01280000       2.91270000       1.86450000
H        2.04200000       2.15510000       0.40580000
H        1.93400000       3.23210000      -1.71900000
H       -2.06160000       3.17850000      -1.66620000
