23
Properties=species:S:1:pos:R:3 gdb_87680=T pbc="F F F"
C        0.11190000       1.50960000      -0.29650000
C        0.04270000       0.02440000      -0.05770000
O        1.29150000      -0.69090000      -0.05870000
C        0.55900000      -0.62290000       1.15360000
C        1.06540000       0.00670000       2.45160000
C        0.18630000      -1.02970000       3.23690000
C        0.88960000      -1.76930000       4.37010000
C       -1.13300000      -0.41510000       3.70910000
C        0.01220000      -1.83700000       1.90280000
H        0.91100000       1.96440000       0.29430000
H        0.30640000       1.72070000      -1.35330000
H       -0.83750000       1.98700000      -0.02890000
H       -0.75340000      -0.49580000      -0.59570000
H        2.13760000      -0.16510000       2.58850000
H        0.85350000       1.06650000       2.62030000
H        1.11390000      -1.09370000       5.20400000
H        0.26300000      -2.58000000       4.76010000
H        1.83380000      -2.20890000       4.03230000
H       -1.64050000       0.11590000       2.89660000
H       -1.81590000      -1.18780000       4.08050000
H       -0.96420000       0.30130000       4.52120000
H       -0.99650000      -2.17730000       1.65150000
H        0.69930000      -2.68660000       1.83810000
