15
Properties=species:S:1:pos:R:3 gdb_33598=T pbc="F F F"
N        0.09820000      -1.06670000       0.02320000
C        0.03400000       0.09010000      -0.00150000
C       -0.06000000       1.50280000      -0.03530000
C        0.13820000       2.52370000       1.09210000
C        1.16150000       2.46880000       0.01050000
N        0.67280000       3.66240000      -0.72580000
C       -0.12760000       3.10850000      -1.88340000
C       -1.02310000       2.41400000      -0.84260000
C       -0.58030000       3.52820000       0.16470000
H        0.19830000       2.38200000       2.16180000
H        2.18560000       2.12110000       0.00240000
H       -0.62830000       3.93220000      -2.39950000
H        0.43670000       2.50020000      -2.59510000
H       -2.04430000       2.07700000      -1.00900000
H       -1.13840000       4.42200000       0.43050000
