19
Properties=species:S:1:pos:R:3 gdb_8221=T pbc="F F F"
C        0.27160000       1.47450000      -0.10560000
C        0.18550000      -0.04320000      -0.03410000
O        1.16710000      -0.75010000      -0.17410000
N       -1.06740000      -0.54410000       0.19790000
C       -1.35220000      -1.95140000       0.30060000
C       -2.10260000      -2.48930000       1.55040000
C       -2.83770000      -3.48590000       0.61290000
C       -2.46700000      -2.57140000      -0.58660000
H        0.69000000       1.75630000      -1.07540000
H       -0.68820000       1.98060000       0.02870000
H        0.96760000       1.82260000       0.66230000
H       -1.83270000       0.10210000       0.30360000
H       -0.39980000      -2.46400000       0.15800000
H       -1.50300000      -2.88510000       2.37320000
H       -2.79150000      -1.73640000       1.94930000
H       -2.32210000      -4.44860000       0.56200000
H       -3.89730000      -3.66820000       0.80050000
H       -3.25860000      -1.84170000      -0.79010000
H       -2.16830000      -3.03510000      -1.52950000
