16
Properties=species:S:1:pos:R:3 gdb_28007=T pbc="F F F"
N        0.11070000       1.39900000       0.10130000
C        0.02240000       0.00270000       0.01670000
C       -1.06770000      -0.81700000       0.02980000
N       -0.61040000      -2.13770000      -0.01020000
C       -1.41060000      -3.25940000      -0.00930000
O       -1.00100000      -4.39450000      -0.05760000
C        0.78330000      -2.13850000      -0.04580000
C        1.19960000      -0.83860000      -0.02470000
N        2.49050000      -0.30140000      -0.10320000
H        0.77430000       1.77310000      -0.56870000
H       -0.78090000       1.86210000      -0.01790000
H       -2.12300000      -0.60090000       0.06020000
H       -2.48240000      -2.99220000       0.04200000
H        1.31670000      -3.07240000      -0.07890000
H        3.21730000      -0.99610000       0.01030000
H        2.62980000       0.44510000       0.56920000
