18
Properties=species:S:1:pos:R:3 gdb_76102=T pbc="F F F"
O        0.43160000       1.54880000       0.44050000
C        0.32520000       0.19470000       0.19450000
C       -0.48990000      -0.71000000       1.13240000
C       -1.12300000      -0.17200000       2.29540000
C       -1.64310000       0.26990000       3.28620000
C       -0.99120000      -0.35480000      -0.27620000
N       -2.02960000       0.62930000      -0.36520000
C       -2.72470000       0.75810000      -1.64420000
C       -3.40920000       0.16240000      -0.46290000
H       -0.47520000       1.89270000       0.42130000
H        1.24660000      -0.22070000      -0.20030000
H       -0.11980000      -1.72670000       1.23510000
H       -2.09700000       0.66370000       4.16110000
H       -1.00910000      -1.16950000      -1.00320000
H       -2.94830000       1.77310000      -1.95820000
H       -2.43130000       0.08590000      -2.44800000
H       -3.57710000      -0.91210000      -0.46970000
H       -4.13780000       0.73620000       0.10090000
