23
Properties=species:S:1:pos:R:3 gdb_63695=T pbc="F F F"
C       -0.51780000       1.53580000       0.01330000
C       -0.01210000       0.09580000       0.03160000
C       -1.14570000      -0.87420000      -0.31080000
C        1.27550000      -0.18460000      -0.82410000
C        2.00610000      -0.69940000       0.43910000
C        2.78030000      -1.99060000       0.39570000
O        2.74810000       0.37130000       1.08650000
C        1.66910000       0.62200000       2.01490000
C        0.75100000      -0.38630000       1.31460000
H        0.28680000       2.25580000       0.18700000
H       -0.96060000       1.77170000      -0.96140000
H       -1.28960000       1.69810000       0.77510000
H       -1.53500000      -0.68060000      -1.31700000
H       -0.80630000      -1.91560000      -0.28040000
H       -1.97660000      -0.77490000       0.39760000
H        1.12940000      -0.93280000      -1.60920000
H        1.75550000       0.69690000      -1.25570000
H        3.67600000      -1.87030000      -0.22460000
H        3.10080000      -2.28950000       1.39850000
H        2.17580000      -2.79580000      -0.03420000
H        1.94790000       0.32930000       3.03630000
H        1.36220000       1.67410000       2.02710000
H        0.23720000      -1.11810000       1.93970000
