14
Properties=species:S:1:pos:R:3 gdb_21885=T pbc="F F F"
O       -0.13120000       1.34150000       0.12120000
C        0.06730000       0.00800000       0.07900000
N        0.09480000      -0.64760000      -1.08690000
N        0.21380000      -1.92800000      -0.66170000
C        0.76270000      -3.24460000      -1.02030000
C        0.78850000      -3.51920000       0.53770000
C        0.34510000      -2.06860000       0.66760000
C        0.24350000      -0.81370000       1.23210000
H       -0.21960000       1.64010000      -0.79280000
H        0.09800000      -3.86140000      -1.63070000
H        1.75590000      -3.19700000      -1.47580000
H        0.08180000      -4.27570000       0.88620000
H        1.78150000      -3.74190000       0.93360000
H        0.27160000      -0.49600000       2.25960000
