14
Properties=species:S:1:pos:R:3 gdb_4722=T pbc="F F F"
C        0.00140000       1.53580000      -0.04170000
C        0.00070000       0.03940000       0.01150000
C       -0.06180000      -0.82640000      -1.03950000
O       -0.04120000      -2.11650000      -0.62470000
C        0.03750000      -2.09000000       0.74310000
C        0.06560000      -0.79190000       1.17470000
C        0.07380000      -3.31760000       1.42660000
C        0.10560000      -4.36280000       2.02470000
H        0.91090000       1.95220000       0.40520000
H       -0.05700000       1.89370000      -1.07320000
H       -0.84900000       1.95650000       0.50630000
H       -0.12280000      -0.67950000      -2.10610000
H        0.12550000      -0.47310000       2.20380000
H        0.13360000      -5.28420000       2.55150000
