21
Properties=species:S:1:pos:R:3 gdb_78557=T pbc="F F F"
C       -0.00260000       1.59100000       0.01480000
C        0.05840000       0.08160000      -0.05040000
C        0.59710000      -0.72180000      -1.23110000
C        1.85990000      -0.08500000      -1.74460000
C        2.67730000      -0.47370000      -2.93050000
C        2.12660000       0.94230000      -2.79260000
O        2.44630000      -0.01210000      -0.43440000
C        1.31470000      -0.72600000       0.10960000
C        1.60850000      -1.77020000       1.13610000
H        0.94280000       2.03270000      -0.30610000
H       -0.80240000       1.98520000      -0.62110000
H       -0.19640000       1.92420000       1.04020000
H       -0.79760000      -0.42500000       0.39420000
H        0.03640000      -1.49980000      -1.73350000
H        3.74130000      -0.61250000      -2.77260000
H        2.23460000      -1.13420000      -3.66950000
H        1.31310000       1.25310000      -3.43950000
H        2.83660000       1.72470000      -2.54680000
H        2.02330000      -1.31250000       2.04160000
H        0.69330000      -2.30020000       1.41550000
H        2.33530000      -2.49720000       0.76060000
