19
Properties=species:S:1:pos:R:3 gdb_73579=T pbc="F F F"
C       -0.06310000       1.48310000      -0.02000000
C        0.01820000      -0.03030000      -0.01240000
O       -1.20560000      -0.63080000      -0.44660000
C       -1.79310000      -1.18200000       0.71390000
O       -0.74720000      -1.64150000       1.54970000
C        0.33010000      -0.74440000       1.33140000
C        1.61540000      -1.32430000       0.72710000
C        1.30360000      -2.12370000      -0.50290000
C        1.30460000      -0.63040000      -0.61280000
H        0.86150000       1.92270000       0.36790000
H       -0.21490000       1.85030000      -1.04000000
H       -0.89740000       1.83140000       0.59710000
H       -2.39860000      -0.42240000       1.24090000
H       -2.42280000      -2.03010000       0.42950000
H        0.48760000      -0.08770000       2.19390000
H        2.56010000      -1.40030000       1.24960000
H        2.15810000      -2.61640000      -0.95450000
H        0.37160000      -2.67340000      -0.57320000
H        1.97700000      -0.09040000      -1.26810000
