18
Properties=species:S:1:pos:R:3 gdb_31541=T pbc="F F F"
C       -0.08320000       1.42240000       0.21490000
N        0.34940000       0.06280000      -0.09270000
C        0.76320000      -0.75460000       0.94220000
C        0.73610000      -2.10910000       1.11870000
C        1.42340000      -2.33520000       2.36190000
O        1.64990000      -3.53210000       2.97750000
C        1.80790000      -1.13210000       2.86010000
C        2.51580000      -0.70350000       4.08840000
O        1.39180000      -0.14580000       1.96830000
H        0.73290000       1.96110000       0.69970000
H       -0.32020000       1.93190000      -0.72190000
H       -0.96210000       1.46660000       0.87580000
H       -0.27010000      -0.42340000      -0.72430000
H        0.29000000      -2.84360000       0.46620000
H        1.36350000      -4.23630000       2.39010000
H        3.43420000      -0.14520000       3.86620000
H        1.89390000      -0.06660000       4.73100000
H        2.79160000      -1.59190000       4.66220000
