19
Properties=species:S:1:pos:R:3 gdb_62898=T pbc="F F F"
C       -0.08840000       1.52500000       0.15680000
C        0.02270000       0.00960000      -0.03250000
C       -1.36170000      -0.57050000       0.28410000
C        0.88270000      -0.58740000      -1.19460000
C        2.10570000      -0.05190000      -0.42240000
N        1.24590000      -0.65420000       0.71670000
C        1.11360000      -1.83020000      -0.28610000
C        0.17100000      -2.91100000      -0.04020000
N       -0.47820000      -3.85410000       0.12380000
H        0.84130000       2.08660000       0.08570000
H       -0.77890000       1.93060000      -0.59010000
H       -0.51940000       1.72820000       1.14250000
H       -1.59780000      -1.49790000      -0.23220000
H       -1.44960000      -0.75090000       1.36040000
H       -2.13090000       0.15660000       0.00990000
H        0.68690000      -0.58120000      -2.27240000
H        3.05660000      -0.57180000      -0.55540000
H        2.26770000       1.01780000      -0.35190000
H        2.08140000      -2.31790000      -0.43550000
