22
Properties=species:S:1:pos:R:3 gdb_121634=T pbc="F F F"
C        0.02550000       1.43570000       0.07000000
N        0.00460000      -0.01740000       0.06960000
C        1.30430000      -0.65320000       0.13120000
C       -1.20560000      -0.66730000       0.01300000
O       -2.26070000      -0.05610000      -0.03700000
C       -1.18550000      -2.19900000       0.01470000
C       -2.59610000      -2.78500000      -0.05130000
C       -2.58470000      -4.30750000      -0.05030000
O       -3.93050000      -4.75270000      -0.11320000
H        0.58850000       1.81460000      -0.79280000
H       -1.00110000       1.79340000       0.02130000
H        0.50440000       1.81530000       0.98190000
H        1.83960000      -0.35640000       1.04360000
H        1.21920000      -1.73720000       0.12720000
H        1.92340000      -0.35650000      -0.72660000
H       -0.58820000      -2.55650000      -0.83450000
H       -0.67050000      -2.55560000       0.91640000
H       -3.18820000      -2.42750000       0.79570000
H       -3.10640000      -2.42800000      -0.95030000
H       -2.00190000      -4.67940000      -0.91050000
H       -2.08480000      -4.67880000       0.86070000
H       -3.93010000      -5.71410000      -0.11290000
