11
Properties=species:S:1:pos:R:3 gdb_5446=T pbc="F F F"
N        0.09650000       1.36010000      -0.17750000
C       -0.03240000       0.01040000      -0.06200000
C       -1.10680000      -0.84640000      -0.00820000
N       -0.62380000      -2.16050000       0.02150000
C        0.65030000      -2.03680000      -0.00730000
O        1.09500000      -0.73190000      -0.06040000
C       -2.46870000      -0.48060000       0.02240000
N       -3.56860000      -0.11410000       0.05040000
H        0.95030000       1.75790000       0.18490000
H       -0.73420000       1.89110000       0.03890000
H        1.41360000      -2.79690000       0.00730000
