18
Properties=species:S:1:pos:R:3 gdb_126478=T pbc="F F F"
C       -0.20070000       1.50440000       0.04840000
C        0.10660000      -0.00080000      -0.02570000
C        0.74870000      -0.53250000       1.22110000
N        2.02790000      -0.82970000       1.22280000
O        2.31830000      -1.27620000       2.50710000
C        1.19700000      -1.23380000       3.24200000
C        0.15680000      -0.77310000       2.50250000
C       -1.25960000      -0.58700000       2.93940000
O       -1.40040000      -1.15890000       4.22940000
H        0.71740000       2.07850000       0.20170000
H       -0.66830000       1.84700000      -0.87940000
H       -0.88280000       1.73760000       0.87230000
H       -0.81940000      -0.55640000      -0.21930000
H        0.78050000      -0.20090000      -0.86350000
H        1.27630000      -1.56610000       4.26390000
H       -1.51580000       0.48550000       2.95330000
H       -1.94010000      -1.06200000       2.21250000
H       -2.29080000      -0.97790000       4.54330000
