18
Properties=species:S:1:pos:R:3 gdb_24280=T pbc="F F F"
C       -0.02050000       1.48170000       0.08240000
C        1.30160000       0.76240000       0.01340000
C        2.04940000       0.46010000       1.32550000
C        1.08700000      -0.43810000       2.06170000
C        0.95740000      -1.09640000       3.25830000
N       -0.22470000      -1.80440000       3.19790000
C       -0.85310000      -1.60030000       1.98600000
C       -0.05200000      -0.75080000       1.26560000
C       -0.00570000      -0.03240000      -0.02990000
H       -0.33680000       1.91220000       1.02740000
H       -0.31980000       2.04810000      -0.79390000
H        1.89100000       0.89100000      -0.88730000
H        3.00140000      -0.04350000       1.11380000
H        2.29640000       1.37780000       1.87330000
H        1.58540000      -1.14790000       4.13350000
H       -0.57120000      -2.40130000       3.92780000
H       -1.79730000      -2.07220000       1.76710000
H       -0.36070000      -0.49430000      -0.94420000
