21
Properties=species:S:1:pos:R:3 gdb_105223=T pbc="F F F"
C        0.24740000      -0.93900000       1.82470000
C        0.03350000      -0.41630000       0.39830000
O        1.02440000      -0.93380000      -0.47720000
C       -1.39710000      -0.67200000      -0.11210000
C       -2.48360000       0.07930000       0.62570000
O       -2.24660000       1.47250000       0.46850000
C       -1.59250000      -0.88830000      -1.60050000
C       -1.76620000      -2.03290000      -0.63600000
O       -0.79100000      -3.04970000      -0.55100000
H        1.28340000      -0.75600000       2.12220000
H       -0.40500000      -0.43970000       2.54770000
H        0.05690000      -2.01620000       1.87600000
H        0.18040000       0.66840000       0.39090000
H        0.86060000      -1.88580000      -0.52590000
H       -3.46640000      -0.20210000       0.21430000
H       -2.48570000      -0.20230000       1.68970000
H       -2.86680000       1.94830000       1.02860000
H       -2.47290000      -0.47450000      -2.08050000
H       -0.68520000      -0.88360000      -2.19260000
H       -2.77720000      -2.39340000      -0.44660000
H       -0.85740000      -3.58910000      -1.34660000
