16
Properties=species:S:1:pos:R:3 gdb_66023=T pbc="F F F"
C       -0.13260000       1.57090000       0.01000000
C       -0.06830000       0.04090000      -0.00110000
C        1.13400000      -0.53050000      -0.82310000
N        1.91010000      -0.62560000       0.43200000
C        0.67840000      -0.59090000       1.24160000
C        0.75100000       0.19500000       2.47230000
N        0.79380000       0.81870000       3.44400000
C       -1.36610000      -0.55270000      -0.28940000
N       -2.39230000      -1.03050000      -0.52340000
H        0.85870000       1.97880000       0.22020000
H       -0.46790000       1.93760000      -0.96370000
H       -0.82710000       1.92890000       0.77380000
H        0.89320000      -1.49110000      -1.29370000
H        1.56150000       0.14550000      -1.56870000
H        2.48120000      -1.45450000       0.54940000
H        0.25480000      -1.57540000       1.48030000
