13
Properties=species:S:1:pos:R:3 gdb_124050=T pbc="F F F"
C        0.01150000       1.48920000       0.12850000
O        1.23200000       2.17710000      -0.22470000
C        2.10610000       1.49620000      -0.96730000
N        3.15820000       2.01040000      -1.53070000
O        3.77400000       0.92570000      -2.14290000
N        3.08010000      -0.24090000      -1.94010000
C        2.04940000       0.09240000      -1.21580000
C        0.96560000      -0.69190000      -0.67180000
C        0.01560000      -0.00930000      -0.02320000
H       -0.18770000       1.76420000       1.16990000
H       -0.80020000       1.92050000      -0.47650000
H        0.94550000      -1.76820000      -0.78760000
H       -0.84040000      -0.51320000       0.41510000
