18
Properties=species:S:1:pos:R:3 gdb_16691=T pbc="F F F"
C       -0.01990000       1.42930000       0.08390000
C       -0.03720000      -0.05920000       0.02250000
C       -0.04360000      -0.90470000      -1.02030000
C        0.01760000      -2.28540000      -0.37700000
C       -1.00040000      -2.10190000       0.79580000
C        0.02400000      -1.00220000       1.22650000
C        1.14900000      -1.99230000       0.69760000
O        1.58440000      -3.02720000       1.52980000
H        0.87460000       1.79830000       0.60220000
H       -0.03380000       1.86780000      -0.91820000
H       -0.88280000       1.82100000       0.63790000
H       -0.03080000      -0.68520000      -2.07910000
H        0.03630000      -3.17170000      -1.01100000
H       -2.00870000      -1.77210000       0.53480000
H       -1.06230000      -2.95530000       1.48280000
H        0.05120000      -0.57710000       2.23060000
H        2.05100000      -1.51430000       0.30950000
H        0.82170000      -3.48780000       1.89460000
