13
Properties=species:S:1:pos:R:3 gdb_23944=T pbc="F F F"
N        0.04730000      -3.71600000      -0.01850000
C        0.03570000      -2.55260000      -0.01190000
C        0.02100000      -1.19150000      -0.00410000
C        0.00000000       0.02150000       0.00300000
C       -0.00340000       1.42550000       0.01080000
C       -1.12900000       2.23970000       0.03020000
N       -0.70290000       3.53050000       0.03180000
C        0.67320000       3.58010000       0.01390000
C        1.14040000       2.29400000       0.00060000
H       -2.17480000       1.98170000       0.04250000
H       -1.30870000       4.33300000       0.04420000
H        1.19430000       4.52330000       0.01230000
H        2.17150000       1.98070000      -0.01470000
