19
Properties=species:S:1:pos:R:3 gdb_95696=T pbc="F F F"
C       -0.04740000       1.59990000       0.07770000
C       -0.04150000       0.08100000      -0.03040000
C        0.39610000      -0.40500000      -1.41510000
C        0.41970000      -1.92300000      -1.56580000
O        1.54560000      -2.56240000      -0.94790000
C        1.68080000      -2.63390000       0.39750000
O        2.52370000      -3.34820000       0.86640000
C        0.75700000      -1.77510000       1.27110000
O        0.82440000      -0.39480000       0.99410000
H        0.95680000       1.99730000      -0.09900000
H       -0.72830000       2.03670000      -0.65860000
H       -0.36650000       1.90810000       1.07630000
H       -1.05910000      -0.30290000       0.16620000
H       -0.30030000      -0.00450000      -2.16240000
H        1.39080000      -0.00830000      -1.64920000
H       -0.51300000      -2.37070000      -1.19760000
H        0.51770000      -2.19260000      -2.61950000
H       -0.27840000      -2.14810000       1.20170000
H        1.10400000      -1.91970000       2.29550000
