22
Properties=species:S:1:pos:R:3 gdb_103972=T pbc="F F F"
C       -0.18160000       1.51020000      -0.20580000
N        0.10020000       0.11270000       0.08020000
C        1.34660000      -0.54350000      -0.21160000
C        2.59000000       0.30440000       0.13390000
C        2.13130000       0.33380000       1.63210000
C        2.98380000      -0.59530000       2.50230000
C        1.97550000       1.69150000       2.32400000
O        1.23980000       1.59520000       3.53780000
C        0.83130000      -0.41640000       1.20650000
H        0.69660000       2.16560000      -0.26580000
H       -0.70180000       1.56390000      -1.16800000
H       -0.85590000       1.90690000       0.55990000
H        1.34060000      -1.40430000      -0.87240000
H        3.52780000      -0.23830000      -0.00290000
H        2.67230000       1.26680000      -0.38130000
H        4.00630000      -0.21150000       2.59080000
H        2.55960000      -0.66190000       3.50840000
H        3.03540000      -1.60380000       2.07960000
H        2.96300000       2.07410000       2.60830000
H        1.52510000       2.43280000       1.65250000
H        0.35200000       1.29730000       3.31280000
H        0.33910000      -1.16530000       1.82180000
