16
Properties=species:S:1:pos:R:3 gdb_127390=T pbc="F F F"
C        0.25650000       1.51860000      -0.48150000
N        0.05970000       0.12070000      -0.11370000
C        1.23960000      -0.71690000      -0.00900000
C        0.48120000      -0.34370000       1.22380000
C        1.06690000       0.55320000       2.24040000
N        2.16860000       1.24770000       2.08880000
O        2.33710000       1.95170000       3.24800000
N        1.33880000       1.68830000       4.14090000
C        0.55460000       0.83840000       3.54210000
H        1.18600000       1.96140000      -0.09810000
H        0.26740000       1.57900000      -1.57380000
H       -0.58990000       2.10850000      -0.11650000
H        1.15060000      -1.72530000      -0.40440000
H        2.21530000      -0.25100000      -0.13510000
H       -0.20890000      -1.06710000       1.65100000
H       -0.32960000       0.45610000       4.02870000
