18
Properties=species:S:1:pos:R:3 gdb_107804=T pbc="F F F"
O       -0.02660000       1.39180000      -0.30540000
C        0.01920000      -0.01920000      -0.08160000
C       -1.37820000      -0.56720000       0.00090000
C       -2.26960000      -0.42400000       1.25410000
C       -2.88900000      -1.71780000       0.75990000
C       -2.95520000      -1.68030000      -0.72980000
C       -2.33360000      -0.38890000      -1.20120000
O       -3.15750000       0.74670000      -1.27970000
N       -1.67430000      -2.10360000      -0.03870000
H       -0.33910000       1.80590000       0.50570000
H        0.53660000      -0.44750000      -0.94650000
H        0.60670000      -0.26960000       0.81350000
H       -1.69490000      -0.58720000       2.17060000
H       -2.89920000       0.46550000       1.34100000
H       -3.43490000      -2.45930000       1.33190000
H       -3.53940000      -2.39010000      -1.30350000
H       -1.78090000      -0.55970000      -2.13580000
H       -2.58510000       1.48970000      -1.50300000
