17
Properties=species:S:1:pos:R:3 gdb_112370=T pbc="F F F"
C       -0.00450000       1.57970000      -0.00440000
C        0.00660000       0.05020000       0.02700000
C       -1.39520000      -0.55660000       0.00070000
O       -2.08180000      -0.22800000      -1.22000000
C       -2.51660000      -1.32420000      -1.90700000
O       -3.08990000      -1.23060000      -2.95020000
C       -2.15810000      -2.58620000      -1.13830000
C       -1.38600000      -2.08790000       0.06800000
O       -0.84650000      -2.73430000       0.92480000
H        1.01560000       1.97380000       0.00210000
H       -0.50690000       1.94760000      -0.90300000
H       -0.52820000       1.98840000       0.86650000
H        0.57360000      -0.34340000      -0.82540000
H        0.49570000      -0.32240000       0.93350000
H       -1.98990000      -0.16410000       0.83680000
H       -3.06520000      -3.11990000      -0.83670000
H       -1.57150000      -3.27480000      -1.75220000
