14
Properties=species:S:1:pos:R:3 gdb_129366=T pbc="F F F"
N       -0.03100000       1.26960000      -0.29530000
C       -0.01720000       0.03160000      -0.06640000
O       -1.15300000      -0.68760000      -0.21930000
C       -1.05620000      -2.07880000       0.07070000
C       -2.43370000      -2.64780000      -0.03430000
N       -2.65520000      -3.88240000      -0.39480000
O       -4.00890000      -4.04750000      -0.34000000
N       -4.63620000      -2.89770000       0.04750000
C       -3.68540000      -2.02750000       0.24120000
H        0.89210000       1.66790000      -0.13720000
H        0.84320000      -0.56960000       0.25800000
H       -0.38840000      -2.59060000      -0.63180000
H       -0.66340000      -2.22820000       1.08620000
H       -3.89520000      -1.01490000       0.54530000
