13
Properties=species:S:1:pos:R:3 gdb_28998=T pbc="F F F"
O        0.11380000       1.33640000       0.05830000
C        0.07640000      -0.00340000       0.02460000
N        0.08990000      -0.60320000      -1.15390000
C        0.05170000      -1.93980000      -1.15140000
C        0.00040000      -2.66390000       0.03250000
N       -0.01330000      -2.06140000       1.22320000
C        0.02420000      -0.72620000       1.24430000
C        0.01120000      -0.04670000       2.49550000
C        0.00070000       0.54110000       3.54530000
H        0.14610000       1.63210000      -0.86310000
H        0.06270000      -2.43410000      -2.11850000
H       -0.03040000      -3.74900000       0.02740000
H       -0.00870000       1.05630000       4.47400000
