21
Properties=species:S:1:pos:R:3 gdb_92194=T pbc="F F F"
C        0.04180000       1.64060000      -0.09350000
C        0.02910000       0.12300000      -0.00650000
C        1.04220000      -0.71700000      -0.89290000
C        1.07060000      -1.72650000       0.29710000
O        2.14500000      -2.35050000       1.01450000
C        2.06050000      -1.59300000       2.25210000
C        2.08800000      -0.14510000       1.73460000
C        0.67780000      -0.58530000       1.21330000
C        0.52810000      -1.35580000       2.55890000
H        1.04520000       2.04060000       0.08470000
H       -0.28060000       1.97930000      -1.08410000
H       -0.63350000       2.08480000       0.64610000
H       -0.98560000      -0.25550000      -0.17490000
H        0.68000000      -1.09140000      -1.85260000
H        1.98140000      -0.18210000      -1.04380000
H        0.27030000      -2.46260000       0.15090000
H        2.75600000      -2.00190000       2.98330000
H        2.01390000       0.61180000       2.51850000
H        2.88060000       0.10120000       1.02620000
H       -0.13600000      -2.22350000       2.56950000
H        0.39380000      -0.74770000       3.45590000
