16
Properties=species:S:1:pos:R:3 gdb_10878=T pbc="F F F"
C        0.04860000       1.41350000      -0.02970000
C       -0.02530000      -0.07220000       0.09870000
O        0.60750000      -0.91890000      -0.96830000
C        0.06200000      -1.89650000       0.00700000
C        0.65250000      -1.02220000       1.14450000
O        2.03350000      -0.95230000       1.27050000
C       -1.23050000      -1.03240000       0.02900000
O       -2.08910000      -1.02830000       1.13480000
H        1.08100000       1.75620000       0.08970000
H       -0.32220000       1.74040000      -1.00570000
H       -0.56170000       1.87990000       0.74980000
H        0.20490000      -2.95360000      -0.21960000
H        0.20030000      -1.09190000       2.13280000
H        2.36760000      -0.90870000       0.36270000
H       -1.74440000      -1.01070000      -0.93790000
H       -2.74260000      -1.72470000       1.01840000
