14
Properties=species:S:1:pos:R:3 gdb_132859=T pbc="F F F"
C        0.01550000       1.53240000       0.03020000
C       -0.03400000       0.03350000       0.01360000
C       -1.17840000      -0.67690000      -0.15100000
N       -1.13530000      -2.05000000      -0.15250000
C        0.02090000      -2.80430000       0.00530000
O        0.03500000      -4.01840000       0.00040000
C        1.18220000      -1.90660000       0.17300000
F        2.33290000      -2.53450000       0.33050000
N        1.16690000      -0.63030000       0.17820000
H        0.66970000       1.90680000      -0.76420000
H       -0.97850000       1.96540000      -0.10740000
H        0.42350000       1.89580000       0.97930000
H       -2.15210000      -0.22440000      -0.28460000
H       -1.98170000      -2.58930000      -0.27430000
