18
Properties=species:S:1:pos:R:3 gdb_93369=T pbc="F F F"
C       -0.00580000       1.61500000      -0.01870000
C        0.03190000       0.08230000       0.01360000
C        0.68500000      -0.51490000      -1.23520000
O        2.11580000      -0.34520000      -1.27170000
C        2.84890000      -0.84870000      -0.24740000
O        4.01140000      -1.10380000      -0.39820000
C        2.13930000      -0.99630000       1.07090000
N        1.89180000       0.30450000       1.73670000
C        0.75410000      -0.47590000       1.24450000
H        1.00220000       2.02620000      -0.09730000
H       -0.59670000       1.96370000      -0.87170000
H       -0.45680000       2.01400000       0.89450000
H       -0.99780000      -0.29560000       0.03160000
H        0.46170000      -1.58690000      -1.30680000
H        0.32460000      -0.03190000      -2.14660000
H        2.50050000      -1.82320000       1.67270000
H        2.00040000       0.19280000       2.74120000
H        0.13380000      -0.97610000       1.98410000
