16
Properties=species:S:1:pos:R:3 gdb_35819=T pbc="F F F"
N       -0.10710000      -1.15050000      -0.13570000
C       -0.04880000       0.00060000      -0.05590000
C       -0.00600000       1.45130000       0.04920000
C       -0.49950000       2.00480000       1.41160000
O        0.04670000       3.31420000       1.48020000
C        1.33370000       3.28890000       0.90140000
C        2.43770000       2.55870000       1.69780000
O        2.36400000       1.41150000       0.81550000
C        1.40860000       2.05840000      -0.03840000
H       -0.61210000       1.88450000      -0.75490000
H       -1.58540000       2.08470000       1.47910000
H       -0.13590000       1.36670000       2.22740000
H        1.56140000       4.28630000       0.52630000
H        3.42540000       3.03200000       1.66180000
H        2.18350000       2.31080000       2.73390000
H        1.77090000       2.16930000      -1.06370000
