14
Properties=species:S:1:pos:R:3 gdb_46337=T pbc="F F F"
N        0.04420000       1.22620000      -0.26830000
C        0.03050000       0.00350000      -0.01670000
O        1.03820000      -0.87370000       0.31810000
C        0.10610000      -1.98390000       0.47010000
C       -1.06950000      -1.06600000       0.02570000
C       -2.17370000      -0.87450000       0.93420000
C       -3.09810000      -0.72740000       1.70070000
C       -4.13430000      -0.56010000       2.56560000
C       -5.05470000      -0.41420000       3.33330000
H        0.98470000       1.61800000      -0.20150000
H        0.35430000      -2.80590000      -0.20390000
H        0.06090000      -2.32330000       1.50620000
H       -1.42820000      -1.30120000      -0.98170000
H       -5.86380000      -0.28160000       4.00810000
