17
Properties=species:S:1:pos:R:3 gdb_109136=T pbc="F F F"
C        0.18020000       1.38360000      -0.19260000
O        0.10510000      -0.03380000      -0.03030000
C        0.57350000      -0.51800000       1.13630000
N        1.13790000       0.21660000       2.00950000
C        1.46230000      -0.42370000       3.27200000
C        1.84300000      -1.89810000       3.19530000
O        2.53510000      -2.44860000       4.01510000
C        1.30250000      -2.66080000       1.98500000
N        0.32970000      -1.87270000       1.24150000
H        1.22050000       1.71890000      -0.19100000
H       -0.28810000       1.59310000      -1.15510000
H       -0.35060000       1.89500000       0.61450000
H        2.27630000       0.10930000       3.77200000
H        0.59860000      -0.37030000       3.95740000
H        2.17710000      -2.93790000       1.37500000
H        0.84720000      -3.59040000       2.33880000
H       -0.02280000      -2.29060000       0.39230000
