19
Properties=species:S:1:pos:R:3 gdb_93111=T pbc="F F F"
O        0.05220000       1.44190000      -0.04110000
C       -0.00450000       0.01920000      -0.02090000
C        0.70280000      -0.56500000       1.20880000
C       -0.10530000      -0.32630000       2.46240000
C       -1.41890000      -0.09180000       2.44990000
C       -2.24800000      -0.04740000       1.18980000
C       -1.44890000      -0.46100000      -0.03310000
C       -2.11260000      -0.79270000      -1.29440000
O       -1.59510000      -1.82880000      -0.44900000
H       -0.12750000       1.74860000       0.85530000
H        0.49170000      -0.31630000      -0.93630000
H        0.85880000      -1.64170000       1.05920000
H        1.69740000      -0.11320000       1.29650000
H        0.42560000      -0.35580000       3.41050000
H       -1.94740000       0.08060000       3.38420000
H       -3.11720000      -0.70940000       1.28060000
H       -2.64970000       0.96570000       1.04420000
H       -3.19930000      -0.74910000      -1.36090000
H       -1.58560000      -0.64830000      -2.23670000
