18
Properties=species:S:1:pos:R:3 gdb_78793=T pbc="F F F"
C        0.03680000       1.62160000       0.08040000
C        0.10600000       0.10160000       0.03580000
C        1.16760000      -0.63910000      -0.77150000
C        2.43560000      -0.75830000       0.02350000
N        1.28100000      -1.75220000       0.19960000
C        0.68810000      -0.70100000       1.23040000
C       -0.11210000      -1.13330000       2.42040000
C        2.13090000      -0.19850000       1.37060000
O        2.77930000       0.22050000       2.28780000
H        1.00410000       2.06490000       0.33570000
H       -0.27350000       2.02380000      -0.88960000
H       -0.69300000       1.95690000       0.82480000
H       -0.87100000      -0.32240000      -0.22460000
H        1.18600000      -0.82940000      -1.84000000
H        3.38360000      -1.04850000      -0.41040000
H        0.47660000      -1.78750000       3.06980000
H       -0.40760000      -0.25710000       3.00740000
H       -1.01780000      -1.66540000       2.11500000
