17
Properties=species:S:1:pos:R:3 gdb_72804=T pbc="F F F"
C       -0.20670000       1.56800000      -0.04430000
C        0.02320000       0.06420000      -0.01050000
C       -1.15370000      -0.83110000       0.47870000
O       -0.31570000      -1.47230000       1.45720000
C        0.79770000      -0.58960000       1.15780000
C        1.95770000      -1.37900000       0.52430000
O        2.82620000      -1.97140000       1.11800000
C        1.76230000      -1.27780000      -0.94340000
C        0.71970000      -0.48670000      -1.22990000
H        0.73630000       2.10900000      -0.17350000
H       -0.86500000       1.84330000      -0.87620000
H       -0.67340000       1.91470000       0.88270000
H       -1.96810000      -0.26690000       0.95160000
H       -1.57230000      -1.54120000      -0.24340000
H        1.09780000       0.01430000       2.01930000
H        2.40510000      -1.78660000      -1.65070000
H        0.37120000      -0.24990000      -2.23120000
