17
Properties=species:S:1:pos:R:3 gdb_125143=T pbc="F F F"
C        0.26280000       1.44970000      -0.07530000
C        0.05590000      -0.03010000      -0.00130000
C       -0.09900000      -0.91970000      -1.03060000
O       -0.28580000      -2.16600000      -0.56050000
N       -0.26180000      -2.13120000       0.84170000
C       -0.05570000      -0.87100000       1.13780000
N       -0.17290000      -0.73190000      -2.40090000
C        1.04890000      -0.45650000      -3.16950000
C        0.34620000      -1.76230000      -3.29670000
H        1.31480000       1.73230000       0.05360000
H       -0.06750000       1.83760000      -1.04290000
H       -0.30780000       1.96790000       0.70190000
H       -0.00000000      -0.58760000       2.18100000
H        0.94410000       0.30240000      -3.93810000
H        1.98840000      -0.44300000      -2.62370000
H        0.80840000      -2.63280000      -2.84190000
H       -0.27370000      -1.96550000      -4.16400000
