17
Properties=species:S:1:pos:R:3 gdb_11517=T pbc="F F F"
O        0.27600000       1.48570000      -0.09370000
C        0.04880000       0.09120000      -0.03160000
C        0.54420000      -0.68060000      -1.27210000
C       -0.12680000      -0.22660000      -2.54890000
C        0.42350000       0.92630000      -3.34700000
C        0.53310000      -0.47870000      -3.88210000
C        0.63690000      -0.48530000       1.19780000
N        1.13110000      -0.92710000       2.14450000
H        1.22770000       1.63550000      -0.13000000
H       -1.03980000      -0.01550000       0.04160000
H        1.63290000      -0.56060000      -1.35000000
H        0.36340000      -1.74910000      -1.10060000
H       -1.21060000      -0.31700000      -2.53360000
H       -0.27650000       1.60840000      -3.81550000
H        1.32920000       1.40400000      -2.98920000
H        1.51160000      -0.94820000      -3.88220000
H       -0.09410000      -0.76600000      -4.71840000
