19
Properties=species:S:1:pos:R:3 gdb_32860=T pbc="F F F"
C       -0.10980000       1.50000000       0.04530000
C       -0.00660000      -0.01280000       0.04100000
O       -1.34370000      -0.53780000      -0.00440000
C       -1.42910000      -1.87310000      -0.01430000
N       -0.45700000      -2.74630000       0.01220000
C       -1.08770000      -3.98710000      -0.01460000
C       -0.29830000      -5.25380000       0.00380000
C       -2.44220000      -3.82660000      -0.05720000
N       -2.65790000      -2.45070000      -0.05670000
H        0.89150000       1.93920000       0.07960000
H       -0.61370000       1.85960000      -0.85640000
H       -0.67050000       1.85070000       0.91650000
H        0.55140000      -0.38350000      -0.82570000
H        0.49510000      -0.39230000       0.93770000
H        0.32250000      -5.32070000       0.90430000
H       -0.95720000      -6.12620000      -0.02210000
H        0.37890000      -5.31120000      -0.85590000
H       -3.25810000      -4.52890000      -0.08680000
H       -3.53700000      -1.96420000      -0.08220000
