14
Properties=species:S:1:pos:R:3 gdb_130376=T pbc="F F F"
N       -0.09840000       1.36880000      -0.05330000
C       -0.07230000       0.01030000      -0.00350000
N       -1.14590000      -0.68900000       0.02570000
C       -1.06510000      -2.06890000       0.01030000
N        0.01870000      -2.85140000      -0.05300000
N       -0.49400000      -4.07570000      -0.03020000
N       -1.82730000      -4.17700000       0.03920000
C       -2.20260000      -2.90780000       0.06560000
O       -3.48910000      -2.52700000       0.13610000
H        0.73190000       1.88430000       0.18110000
H       -0.98250000       1.82500000       0.11080000
H        0.92950000      -0.42720000      -0.02810000
H        0.08780000      -4.89400000      -0.07400000
H       -3.47590000      -1.55970000       0.13340000
