19
Properties=species:S:1:pos:R:3 gdb_86291=T pbc="F F F"
C        0.13080000       1.68760000      -0.18070000
C       -0.05340000       0.17860000      -0.04380000
C       -1.46570000      -0.24150000      -0.36080000
O       -2.01430000      -1.20800000       0.11070000
C        1.03160000      -0.65710000      -0.86520000
O        1.63210000      -0.08430000      -1.98950000
C        1.83640000      -0.83570000       0.44390000
C        0.56160000      -0.44360000       1.23700000
O        0.69060000       0.47310000       2.29930000
H        1.16150000       1.99340000       0.02030000
H       -0.13350000       2.01460000      -1.19140000
H       -0.49880000       2.22180000       0.53580000
H       -1.98420000       0.39020000      -1.11890000
H        0.59700000      -1.60070000      -1.20370000
H        2.13090000       0.68980000      -1.70870000
H        2.29890000      -1.80760000       0.63040000
H        2.59460000      -0.05210000       0.54800000
H       -0.02440000      -1.32230000       1.52790000
H        0.91500000      -0.01550000       3.09670000
