19
Properties=species:S:1:pos:R:3 gdb_40854=T pbc="F F F"
C       -0.04850000       1.39990000      -0.35830000
C        1.41200000       1.59200000       0.09240000
C        1.24590000       0.19710000       0.72340000
O       -0.11490000       0.09970000       0.26290000
C        2.18170000      -1.00270000       0.54730000
C        3.05520000      -0.55710000       1.77460000
C        2.96640000      -1.94870000       2.43280000
C        1.57640000      -1.72850000       1.80360000
C        1.57650000      -0.19870000       2.16570000
H       -0.77730000       2.09650000       0.07330000
H       -0.21080000       1.34380000      -1.44140000
H        2.14860000       1.65470000      -0.71110000
H        1.58340000       2.40550000       0.80020000
H        2.54120000      -1.47930000      -0.36620000
H        3.89390000       0.13960000       1.74200000
H        3.58590000      -2.74010000       1.99830000
H        3.01460000      -1.98100000       3.52610000
H        0.70430000      -2.38080000       1.80160000
H        1.24320000       0.24530000       3.10520000
