18
Properties=species:S:1:pos:R:3 gdb_78853=T pbc="F F F"
C        0.06940000       1.54190000       0.01390000
C        0.03220000       0.01870000      -0.03480000
C        0.83260000      -0.60230000      -1.16870000
C        1.30110000      -1.98980000      -0.74870000
C        1.20190000      -1.91470000       0.80330000
C        2.13410000      -0.75700000       0.84080000
N        0.70140000      -0.57090000       1.14290000
C        2.24970000      -0.80170000      -0.71870000
O        3.34030000      -0.45550000      -1.48160000
H        1.10250000       1.90410000       0.02140000
H       -0.43320000       1.96950000      -0.85930000
H       -0.43030000       1.91050000       0.91390000
H       -1.00570000      -0.33460000      -0.04080000
H        0.63880000      -0.40590000      -2.21620000
H        1.26660000      -2.86880000      -1.37590000
H        1.04850000      -2.73630000       1.49120000
H        2.89110000      -0.44960000       1.55250000
H        4.04660000      -1.08780000      -1.30870000
