20
Properties=species:S:1:pos:R:3 gdb_107933=T pbc="F F F"
C       -0.11640000       1.48390000      -0.01650000
C        0.00170000      -0.00600000      -0.06760000
C        0.89610000      -0.85770000      -0.97160000
C        0.09180000      -2.07800000      -0.44240000
C       -0.05010000      -3.33820000      -1.24510000
O        1.24680000      -3.90780000      -1.37430000
C        0.47160000      -2.06700000       1.04880000
N       -0.25450000      -0.76520000       1.21630000
C       -1.04190000      -1.06040000      -0.01880000
H        0.81190000       1.93700000       0.34980000
H       -0.32390000       1.89580000      -1.01000000
H       -0.92310000       1.78060000       0.65920000
H        0.68120000      -0.65490000      -2.02510000
H        1.97880000      -0.85890000      -0.80740000
H       -0.74100000      -4.02900000      -0.73380000
H       -0.48740000      -3.10770000      -2.23080000
H        1.16870000      -4.72510000      -1.87490000
H       -0.04890000      -2.83040000       1.63460000
H        1.53470000      -2.05410000       1.31350000
H       -2.12380000      -1.05190000      -0.07090000
