19
Properties=species:S:1:pos:R:3 gdb_63581=T pbc="F F F"
C       -0.10860000       1.54410000      -0.07130000
C       -0.01660000       0.03740000      -0.04260000
O       -1.10540000      -0.63540000      -0.62580000
C        1.33700000      -0.64780000      -0.13390000
C        0.55140000      -0.65980000       1.16710000
O        1.04170000       0.12870000       2.23210000
C        0.76410000      -0.52610000       3.47280000
C        0.07220000      -1.80580000       3.09150000
C       -0.04440000      -1.87140000       1.76850000
H        0.70100000       1.99630000       0.50470000
H       -0.05350000       1.91760000      -1.10140000
H       -1.06090000       1.86950000       0.35890000
H       -1.04540000      -0.51500000      -1.58070000
H        1.39940000      -1.57500000      -0.69420000
H        2.22370000      -0.02290000      -0.15610000
H        1.70640000      -0.69410000       4.01700000
H        0.13570000       0.12270000       4.10310000
H       -0.27150000      -2.53370000       3.81460000
H       -0.50900000      -2.64840000       1.17980000
