20
Properties=species:S:1:pos:R:3 gdb_65664=T pbc="F F F"
C       -0.07500000       1.64160000       0.17560000
C        0.01370000       0.11930000       0.06960000
N       -1.33940000      -0.40700000      -0.13210000
C       -2.01410000      -0.30220000      -1.30520000
O       -1.55990000       0.15490000      -2.33440000
C        1.14220000      -0.55020000      -0.79140000
C        2.14610000      -0.16550000       0.33620000
C        0.88620000      -0.71410000       1.06800000
C        0.89970000      -1.86300000       0.01300000
H        0.89050000       2.12930000       0.31080000
H       -0.52870000       2.03330000      -0.73860000
H       -0.71540000       1.92230000       1.01910000
H       -1.84790000      -0.74050000       0.67250000
H       -3.04740000      -0.69840000      -1.22470000
H        1.27030000      -0.44290000      -1.86690000
H        3.03510000      -0.79590000       0.40650000
H        2.40820000       0.88310000       0.46760000
H        0.73450000      -0.80050000       2.14710000
H       -0.03120000      -2.39770000      -0.16750000
H        1.74940000      -2.54650000       0.07250000
