20
Properties=species:S:1:pos:R:3 gdb_96070=T pbc="F F F"
C        0.02780000       1.48170000      -0.02460000
C        0.01880000      -0.03030000       0.03610000
C       -1.19880000      -0.70250000      -0.60630000
O       -1.80000000      -1.71180000       0.18440000
C       -0.86870000      -2.67430000       0.62340000
C        0.09970000      -2.07200000       1.64780000
O        1.11030000      -3.05330000       1.85270000
C        0.66330000      -0.74680000       1.17510000
N        1.34660000      -0.65530000      -0.12420000
H        0.95380000       1.87410000       0.40220000
H       -0.03580000       1.83030000      -1.06210000
H       -0.82180000       1.90150000       0.52510000
H       -1.98200000       0.04120000      -0.77720000
H       -0.91380000      -1.11580000      -1.59030000
H       -1.43390000      -3.49000000       1.08000000
H       -0.29550000      -3.09730000      -0.21930000
H       -0.45810000      -1.88790000       2.57950000
H        1.77210000      -2.68690000       2.44790000
H        1.13340000      -0.15020000       1.95830000
H        1.27600000      -1.54720000      -0.61130000
