16
Properties=species:S:1:pos:R:3 gdb_78445=T pbc="F F F"
O       -0.03510000       1.34360000      -0.08160000
C        0.04300000      -0.04840000      -0.03930000
C       -0.39480000      -0.73520000       1.24380000
C       -1.29220000      -0.73480000       0.00430000
C       -1.35290000      -2.25510000      -0.27310000
N       -1.49540000      -2.88890000       1.09060000
C       -0.15660000      -2.25550000       1.39110000
C        0.12380000      -2.67590000      -0.07300000
O        0.99520000      -3.18780000      -0.69910000
H        0.75910000       1.70010000       0.33090000
H        0.85080000      -0.48100000      -0.62990000
H       -0.60170000      -0.12400000       2.11490000
H       -2.18500000      -0.12600000      -0.07720000
H       -1.98590000      -2.62400000      -1.07750000
H       -2.24480000      -2.45170000       1.62970000
H        0.40410000      -2.62740000       2.24640000
