21
Properties=species:S:1:pos:R:3 gdb_95009=T pbc="F F F"
O        0.13940000       1.39610000      -0.24280000
C        0.08660000      -0.01210000      -0.00640000
C        0.81140000      -0.43070000       1.28000000
C       -0.10750000      -0.29160000       2.50270000
C       -1.52640000      -0.74260000       2.16010000
C       -1.74960000      -1.70750000       0.94180000
C       -3.20780000      -1.18090000       0.88370000
C       -2.32280000       0.07510000       1.09650000
C       -1.35840000      -0.50860000       0.01000000
H       -0.42800000       1.82470000       0.40650000
H        0.61030000      -0.44360000      -0.86670000
H        1.10140000      -1.48360000       1.17650000
H        1.73270000       0.14900000       1.38790000
H        0.28750000      -0.87990000       3.33800000
H       -0.13610000       0.74840000       2.85660000
H       -2.10800000      -0.99780000       3.05220000
H       -1.42160000      -2.74470000       0.84910000
H       -3.71930000      -1.26190000      -0.07930000
H       -3.86360000      -1.46030000       1.71320000
H       -2.66690000       1.10930000       1.18820000
H       -1.78670000      -0.54090000      -0.99660000
