17
Properties=species:S:1:pos:R:3 gdb_88336=T pbc="F F F"
C        0.41580000       1.70180000      -0.33270000
N        0.21360000       0.29880000       0.01670000
C        1.34860000      -0.59140000       0.09290000
C        0.58000000      -0.23880000       1.33320000
C        1.19100000       0.55490000       2.42920000
N        0.74090000       0.48960000       3.60840000
O        2.25390000       1.36340000       2.01820000
C        3.37210000       1.43690000       2.79960000
O        4.25480000       2.19800000       2.56250000
H        1.38610000       2.11510000      -0.03460000
H        0.31670000       1.78890000      -1.41890000
H       -0.37780000       2.29850000       0.12700000
H        1.22030000      -1.57920000      -0.34290000
H        2.34600000      -0.16660000      -0.00600000
H       -0.14670000      -0.93800000       1.73430000
H        1.22540000       1.10780000       4.25820000
H        3.35570000       0.70700000       3.62610000
