15
Properties=species:S:1:pos:R:3 gdb_126112=T pbc="F F F"
C       -0.04280000       1.53810000       0.06340000
C        0.01910000       0.00270000      -0.03460000
C        0.70180000      -0.46560000      -1.23280000
C        1.26980000      -0.83320000      -2.23010000
C        1.93060000      -1.29670000      -3.38850000
N        2.45070000      -0.49930000      -4.32750000
N        2.93990000      -1.39220000      -5.17160000
N        2.75730000      -2.65840000      -4.81950000
N        2.11590000      -2.62120000      -3.68630000
H        0.96220000       1.96750000       0.08220000
H       -0.57570000       1.96130000      -0.79200000
H       -0.56370000       1.83630000       0.97750000
H        0.52650000      -0.40620000       0.84850000
H       -0.99680000      -0.41230000      -0.01720000
H        3.41750000      -1.13290000      -6.02220000
