16
Properties=species:S:1:pos:R:3 gdb_24296=T pbc="F F F"
C        0.03730000       1.46360000       0.02030000
C        1.28000000       0.65500000       0.03760000
C        1.95560000       0.34980000       1.38580000
N        0.88680000      -0.36160000       2.06070000
C        0.60750000      -0.94500000       3.27980000
C       -0.65370000      -1.46750000       3.12630000
N       -1.15870000      -1.22810000       1.85800000
C       -0.20080000      -0.56860000       1.26580000
N       -0.04610000      -0.01970000      -0.03070000
H       -0.28120000       1.94710000       0.94020000
H       -0.26420000       1.96200000      -0.89540000
H        1.89310000       0.58900000      -0.85430000
H        2.83900000      -0.28400000       1.24830000
H        2.25980000       1.25050000       1.92970000
H        1.30410000      -0.94950000       4.10090000
H       -1.23100000      -2.01190000       3.85820000
