17
Properties=species:S:1:pos:R:3 gdb_26188=T pbc="F F F"
C       -0.03530000       1.55100000       0.13400000
C       -0.06060000       0.02560000      -0.00840000
N        0.74490000      -0.57820000       1.06580000
C       -1.46540000      -0.50440000      -0.06670000
N       -1.99820000      -1.27610000      -0.96990000
C       -3.28130000      -1.50770000      -0.51550000
O       -4.14430000      -2.27530000      -1.20580000
C       -3.47860000      -0.86410000       0.66090000
O       -2.29860000      -0.20980000       0.95320000
H        1.00070000       1.89600000       0.16210000
H       -0.55140000       2.03180000      -0.70160000
H       -0.53020000       1.86130000       1.05980000
H        0.39940000      -0.25690000      -0.96020000
H        0.30640000      -0.38420000       1.96300000
H        0.74570000      -1.58990000       0.96560000
H       -3.67790000      -2.57020000      -1.99720000
H       -4.29130000      -0.75850000       1.35460000
