16
Properties=species:S:1:pos:R:3 gdb_44238=T pbc="F F F"
O       -0.45680000       0.37690000      -0.56380000
C       -0.12770000       1.41270000      -0.08590000
O       -0.93600000       2.33960000       0.54500000
C        0.20420000       3.21950000       0.81820000
C        1.15020000       2.22870000       0.09370000
C        1.37490000       3.28390000      -1.04090000
C        0.42910000       4.24150000      -0.29400000
C       -0.53560000       5.24570000      -0.78390000
N        0.71420000       5.66180000      -0.11640000
H        0.24540000       3.50540000       1.86940000
H        2.01130000       1.73270000       0.53430000
H        2.40010000       3.65820000      -1.06540000
H        1.08170000       2.97100000      -2.04490000
H       -0.57940000       5.47250000      -1.84550000
H       -1.47990000       5.34660000      -0.25530000
H        0.52290000       5.94590000       0.84230000
