20
Properties=species:S:1:pos:R:3 gdb_1363=T pbc="F F F"
C        1.85980000      -3.88860000       1.59910000
C        1.03680000      -2.80450000       0.93530000
N        0.08500000      -1.94860000       1.65530000
C       -0.09520000      -2.08300000       3.09140000
C        1.29330000      -1.33290000       1.08580000
C        2.41400000      -0.81830000       1.97190000
C        1.00620000      -0.42350000      -0.09610000
H        2.31280000      -3.58130000       2.54290000
H        1.24140000      -4.77100000       1.79940000
H        2.66910000      -4.20220000       0.93080000
H        0.64540000      -3.12490000      -0.03210000
H        0.80340000      -2.33210000       3.67370000
H       -0.49630000      -1.14320000       3.48550000
H       -0.83930000      -2.86440000       3.27980000
H        3.33190000      -0.70110000       1.38530000
H        2.15830000       0.16890000       2.37490000
H        2.64430000      -1.47000000       2.81530000
H        0.73720000       0.58360000       0.24430000
H        1.88400000      -0.33270000      -0.74660000
H        0.17230000      -0.81200000      -0.68520000
