18
Properties=species:S:1:pos:R:3 gdb_63870=T pbc="F F F"
C       -0.03520000       1.60490000      -0.04690000
C        0.03690000       0.08550000       0.01150000
O       -1.25060000      -0.48480000      -0.12750000
C        1.10470000      -0.66850000      -0.83780000
N        1.66340000      -1.38840000       0.36130000
C        2.16760000      -0.32800000       1.23750000
C        0.70070000      -0.56730000       1.24180000
C       -0.00510000      -1.08580000       2.36470000
C       -0.60020000      -1.49030000       3.32850000
H        0.94090000       2.07070000       0.11080000
H       -0.39840000       1.93100000      -1.02980000
H       -0.72850000       1.97530000       0.71400000
H       -1.65050000      -0.12250000      -0.92540000
H        0.64110000      -1.38260000      -1.51980000
H        1.85130000      -0.06830000      -1.36990000
H        2.71730000      -0.70400000       2.09440000
H        2.57390000       0.58150000       0.79850000
H       -1.13380000      -1.86200000       4.16780000
