16
Properties=species:S:1:pos:R:3 gdb_38923=T pbc="F F F"
C        0.03380000       1.44870000       0.06970000
C        1.33170000       0.70360000       0.01330000
O        1.65480000       0.10740000       1.28000000
C        0.45840000      -0.71430000       1.21180000
C        0.77750000      -2.17290000       0.89570000
O       -0.26670000      -2.76070000       0.09410000
C       -0.73640000      -2.01230000      -0.93540000
N       -0.62240000      -0.76040000      -1.12320000
C        0.01140000      -0.05220000      -0.08190000
H       -0.28580000       1.92600000       0.99250000
H       -0.22540000       1.97070000      -0.84640000
H        2.13770000       0.87620000      -0.68940000
H       -0.17170000      -0.60180000       2.10000000
H        1.72210000      -2.21570000       0.34230000
H        0.85580000      -2.80100000       1.78440000
H       -1.27880000      -2.63700000      -1.64070000
