21
Properties=species:S:1:pos:R:3 gdb_62670=T pbc="F F F"
C       -0.07370000       1.55490000      -0.03440000
C        0.07980000       0.05310000       0.04390000
O       -1.06080000      -0.63990000      -0.41060000
C        1.37060000      -0.68850000      -0.22850000
C        2.57700000      -0.00630000       0.36090000
C        3.15510000      -0.84680000       1.47110000
C        1.92200000      -0.02660000       1.76290000
C        1.89890000       1.02110000       2.84420000
C        0.71040000      -0.71350000       1.17590000
H        0.81650000       2.07720000       0.31970000
H       -0.24560000       1.86250000      -1.07420000
H       -0.93450000       1.88210000       0.55760000
H       -1.17030000      -0.43980000      -1.34680000
H        1.38620000      -1.50360000      -0.94450000
H        3.14060000       0.80120000      -0.09440000
H        3.10400000      -1.93120000       1.41430000
H        4.07180000      -0.46620000       1.91360000
H        2.86740000       1.52510000       2.92890000
H        1.13680000       1.78450000       2.65890000
H        1.68010000       0.56880000       3.81920000
H        0.16330000      -1.53630000       1.62330000
