17
Properties=species:S:1:pos:R:3 gdb_76243=T pbc="F F F"
C       -0.19270000       1.46030000      -0.14880000
C       -0.02390000      -0.04670000      -0.02870000
C        1.13200000      -0.62430000      -0.93640000
O        1.53580000       0.03180000      -2.09590000
C        2.01930000      -0.49730000       0.29990000
O        3.15520000      -0.14240000       0.42030000
C        0.78910000      -0.51860000       1.24650000
C        0.80740000       0.27660000       2.44850000
C        0.83240000       0.95470000       3.44090000
H        0.75430000       1.98800000       0.00700000
H       -0.55920000       1.71940000      -1.14550000
H       -0.90070000       1.83200000       0.59640000
H       -0.97740000      -0.56340000      -0.14810000
H        0.92000000      -1.67660000      -1.16580000
H        2.31800000       0.55330000      -1.87650000
H        0.53410000      -1.56150000       1.46990000
H        0.85990000       1.54900000       4.32050000
