13
Properties=species:S:1:pos:R:3 gdb_25990=T pbc="F F F"
N       -0.06850000       1.28170000       0.17170000
C       -0.06020000       0.01330000      -0.29440000
O        0.56420000      -0.42750000      -1.21710000
O       -0.92450000      -0.74810000       0.50150000
C       -1.00410000      -2.06180000       0.21590000
C       -1.95560000      -2.83520000      -0.35170000
N       -1.53650000      -4.16040000      -0.29350000
C       -0.38570000      -4.10690000       0.28950000
O        0.01460000      -2.85960000       0.64230000
H        0.45470000       1.97550000      -0.33080000
H       -0.67960000       1.55370000       0.92060000
H       -2.89330000      -2.54030000      -0.79160000
H        0.28810000      -4.91430000       0.52720000
