13
Properties=species:S:1:pos:R:3 gdb_26915=T pbc="F F F"
N        0.03210000       1.43630000      -0.25750000
C        0.01450000       0.03980000      -0.12180000
C       -1.13900000      -0.66930000       0.07840000
O       -2.33340000      -0.08560000       0.24360000
O       -1.14930000      -1.99830000       0.13740000
C        0.04080000      -2.77590000      -0.01670000
O       -0.05980000      -3.96890000       0.04060000
C        1.20440000      -1.94040000      -0.21470000
N        1.17720000      -0.63870000      -0.25740000
H       -0.66800000       1.90350000       0.30400000
H        0.95620000       1.80050000      -0.06370000
H       -2.99600000      -0.77680000       0.37760000
H        2.15390000      -2.45290000      -0.32700000
