17
Properties=species:S:1:pos:R:3 gdb_52057=T pbc="F F F"
O       -0.33880000       0.04470000      -0.14830000
C        0.05040000       1.17490000      -0.01880000
C        1.41270000       1.66640000      -0.48030000
N        1.31750000       3.03280000      -0.97890000
C        2.56860000       3.72890000      -1.12810000
C        3.56920000       3.37850000      -2.23310000
C        2.76300000       4.64430000      -2.31540000
C        3.13370000       4.15480000       0.13590000
N        3.59760000       4.46750000       1.14810000
H       -0.56460000       1.96400000       0.46770000
H        2.05470000       1.67940000       0.41270000
H        1.84220000       0.93580000      -1.18180000
H        0.78470000       3.07870000      -1.83870000
H        4.62740000       3.45200000      -2.01180000
H        3.29100000       2.55150000      -2.87690000
H        1.94300000       4.69200000      -3.02470000
H        3.26060000       5.59090000      -2.14410000
