23
Properties=species:S:1:pos:R:3 gdb_104247=T pbc="F F F"
C        0.02880000       1.60170000       0.11370000
C       -0.07060000       0.08530000      -0.08880000
C        0.70520000      -0.45890000      -1.29940000
C        0.23370000       0.15560000      -2.61370000
C        2.25030000      -0.47650000      -1.05880000
C        2.16560000      -1.96300000      -0.63490000
C        0.75930000      -2.04390000      -1.30460000
C       -0.28670000      -2.81280000      -0.66390000
C       -1.15220000      -3.44870000      -0.12070000
H        1.06960000       1.93500000       0.19160000
H       -0.43620000       2.15580000      -0.70710000
H       -0.47950000       1.89750000       1.03670000
H        0.28470000      -0.42000000       0.81740000
H       -1.12380000      -0.20220000      -0.19180000
H        0.42060000       1.23390000      -2.64520000
H        0.75690000      -0.29160000      -3.46570000
H       -0.84150000      -0.00190000      -2.76020000
H        2.80900000      -0.34250000      -1.98980000
H        2.64130000       0.22730000      -0.32030000
H        2.92480000      -2.64660000      -1.02000000
H        2.10120000      -2.08920000       0.44780000
H        0.87000000      -2.38190000      -2.34130000
H       -1.91450000      -4.01400000       0.35530000
