15
Properties=species:S:1:pos:R:3 gdb_5235=T pbc="F F F"
C       -0.13540000       1.49790000       0.01180000
C        0.00050000      -0.01110000       0.00340000
O       -1.33160000      -0.56550000       0.01140000
C       -1.38860000      -1.88560000       0.00600000
N       -0.42770000      -2.75510000      -0.00550000
C       -1.10560000      -3.97650000      -0.00540000
C       -2.43570000      -3.75770000       0.00600000
O       -2.63610000      -2.39010000       0.01370000
H        0.85800000       1.95590000       0.00600000
H       -0.68180000       1.84540000      -0.86920000
H       -0.66750000       1.83680000       0.90490000
H        0.52590000      -0.37400000      -0.88610000
H        0.54000000      -0.38260000       0.88080000
H       -0.57480000      -4.91510000      -0.01380000
H       -3.32030000      -4.36890000       0.01040000
