16
Properties=species:S:1:pos:R:3 gdb_44727=T pbc="F F F"
O        0.14150000       0.04140000      -0.62420000
C        0.04520000       1.14300000      -0.17870000
C       -1.08530000       1.98880000       0.44390000
N       -0.14370000       3.14310000       0.58750000
C        0.58300000       3.13090000       1.89630000
C        1.84750000       2.46810000       1.25450000
C        2.38120000       1.26440000       1.85280000
C        2.80370000       0.26040000       2.36160000
C        0.98720000       2.35400000      -0.04610000
H       -1.90160000       2.20060000      -0.25570000
H       -1.51480000       1.60940000       1.37770000
H        0.74880000       4.13440000       2.29490000
H        0.10350000       2.51730000       2.66540000
H        2.64570000       3.20100000       1.10860000
H        3.18040000      -0.63000000       2.80110000
H        1.43870000       2.71890000      -0.97230000
