18
Properties=species:S:1:pos:R:3 gdb_58929=T pbc="F F F"
C       -0.05630000       1.61320000      -0.00600000
C       -0.07910000       0.09360000       0.12160000
O        0.52420000      -0.28440000       1.35380000
C       -1.47460000      -0.46040000       0.07790000
O       -2.42840000      -0.13840000      -0.97520000
C       -3.17530000      -1.03960000      -0.10270000
C       -1.94560000      -1.94480000       0.21860000
N       -2.03660000      -1.81280000       1.71080000
C       -2.54500000      -0.48800000       1.21740000
H        0.97510000       1.96930000       0.06120000
H       -0.47890000       1.92640000      -0.96480000
H       -0.63190000       2.07290000       0.80280000
H        0.48560000      -0.34200000      -0.71970000
H        0.00020000      -0.99340000       1.75490000
H       -4.20510000      -1.28510000      -0.36470000
H       -1.57880000      -2.83440000      -0.29370000
H       -2.79520000      -2.38410000       2.08850000
H       -2.88100000       0.31610000       1.87130000
