16
Properties=species:S:1:pos:R:3 gdb_132521=T pbc="F F F"
C        0.02360000       1.51230000       0.04870000
C        0.02540000       0.00420000       0.01460000
C       -0.04010000      -0.70440000      -1.18510000
C       -0.03890000      -2.09560000      -1.22630000
C        0.03030000      -2.78220000      -0.02290000
F        0.03310000      -4.12020000      -0.03260000
C        0.09700000      -2.12760000       1.19560000
C        0.09430000      -0.73400000       1.20830000
O        0.16140000      -0.13300000       2.42970000
H        0.93590000       1.91900000       0.50650000
H       -0.03640000       1.92270000      -0.96180000
H       -0.83150000       1.91450000       0.60940000
H       -0.09380000      -0.14830000      -2.11620000
H       -0.08990000      -2.64200000      -2.15950000
H        0.15050000      -2.68190000       2.12400000
H        0.15310000       0.82240000       2.31570000
