15
Properties=species:S:1:pos:R:3 gdb_25969=T pbc="F F F"
C       -0.05760000       1.43440000       0.19840000
C       -0.10780000       0.02230000      -0.31690000
O        0.38600000      -0.40490000      -1.31630000
O       -0.83860000      -0.76190000       0.56520000
C       -0.95260000      -2.08410000       0.27910000
C       -1.99240000      -2.82380000      -0.17530000
C       -1.51590000      -4.17860000      -0.17860000
C       -0.23730000      -4.13690000       0.27280000
O        0.12230000      -2.85160000       0.56440000
H        0.45570000       1.45550000       1.16420000
H        0.46980000       2.06300000      -0.51740000
H       -1.07100000       1.81120000       0.36090000
H       -2.96060000      -2.45500000      -0.47050000
H       -2.06060000      -5.05900000      -0.48120000
H        0.52280000      -4.88030000       0.44180000
