18
Properties=species:S:1:pos:R:3 gdb_32434=T pbc="F F F"
C        0.24500000       0.96840000      -0.62320000
N       -0.04360000      -0.00740000       0.43260000
C       -1.29900000      -0.67010000       0.32240000
C       -2.59840000      -0.22360000       0.49480000
N       -3.42580000      -1.28410000       0.26000000
C       -2.69890000      -2.41860000      -0.06540000
N       -3.37490000      -3.62970000      -0.33430000
C       -1.37330000      -2.04690000      -0.02900000
O       -0.29370000      -2.83850000      -0.27160000
H        1.24230000       1.39150000      -0.46410000
H        0.24050000       0.45990000      -1.59170000
H       -0.48020000       1.79550000      -0.67700000
H        0.06530000       0.42660000       1.34230000
H       -2.98460000       0.74550000       0.76700000
H       -4.42890000      -1.28720000       0.31880000
H       -3.06820000      -4.36940000       0.29040000
H       -3.19240000      -3.95530000      -1.27900000
H        0.46950000      -2.26990000      -0.08610000
