13
Properties=species:S:1:pos:R:3 gdb_21705=T pbc="F F F"
N       -0.03460000       1.35480000       0.11830000
C        0.05260000      -0.00050000       0.03780000
N        1.18480000      -0.60100000       0.01700000
C        1.18740000      -1.98490000      -0.00410000
C        2.30070000      -2.80040000      -0.03160000
N        1.78570000      -4.05330000      -0.04830000
N        0.44180000      -4.03960000      -0.03200000
N        0.07610000      -2.79070000      -0.00500000
H        0.81370000       1.88220000      -0.02070000
H       -0.89890000       1.80500000      -0.12750000
H       -0.90860000      -0.52130000       0.02990000
H        3.35550000      -2.58940000      -0.03950000
H        2.26760000      -4.93710000      -0.06810000
