20
Properties=species:S:1:pos:R:3 gdb_7550=T pbc="F F F"
C        0.09570000       1.50630000      -0.32140000
C       -0.13980000       0.00600000      -0.29180000
O        0.93380000      -0.62520000      -0.98200000
C        0.81790000      -2.01410000      -1.16370000
C        1.10080000      -2.85080000       0.06070000
C       -0.17400000      -2.48000000      -2.21850000
C        1.31150000      -2.42180000      -2.52490000
O        1.80810000      -1.44090000      -3.37650000
H        1.05000000       1.75580000       0.15090000
H        0.11590000       1.87440000      -1.35140000
H       -0.70330000       2.02600000       0.21570000
H       -0.18380000      -0.35470000       0.74580000
H       -1.09510000      -0.25210000      -0.77080000
H        0.32890000      -2.72410000       0.82840000
H        1.13050000      -3.91230000      -0.20140000
H        2.06740000      -2.57710000       0.49610000
H       -0.65650000      -3.44380000      -2.09160000
H       -0.78320000      -1.72030000      -2.69670000
H        1.85510000      -3.35850000      -2.61510000
H        1.74790000      -0.61180000      -2.88130000
