17
Properties=species:S:1:pos:R:3 gdb_79377=T pbc="F F F"
C        0.07200000       1.46380000      -0.38240000
N        0.04040000       0.02750000      -0.11380000
C       -1.04140000      -0.46070000       0.78190000
C       -0.16630000      -1.65870000       1.25970000
N       -0.33050000      -1.42780000       2.72590000
C       -0.33490000      -0.03520000       2.15480000
C       -0.49790000       1.12840000       2.96770000
C       -0.65340000       2.09930000       3.66230000
C        0.77730000      -0.43970000       1.09020000
H        1.04300000       1.72290000      -0.81670000
H       -0.69800000       1.70370000      -1.12290000
H       -0.09080000       2.09290000       0.50540000
H       -2.10390000      -0.42760000       0.52960000
H       -0.06660000      -2.64040000       0.80150000
H       -1.27680000      -1.68010000       3.02380000
H       -0.78320000       2.95960000       4.27140000
H        1.85950000      -0.38910000       1.20980000
