19
Properties=species:S:1:pos:R:3 gdb_51823=T pbc="F F F"
O        0.04800000      -0.04020000       0.17330000
C        0.04780000       1.15350000       0.21900000
O        1.06660000       1.90280000      -0.23490000
C        0.97090000       3.33640000      -0.13530000
C        2.13960000       3.85930000       0.69540000
C        2.05180000       5.38640000       0.84670000
C        1.69570000       6.06490000      -0.45080000
C        1.22850000       5.41620000      -1.51670000
C        0.97840000       3.92940000      -1.54430000
H       -0.78040000       1.76160000       0.63530000
H        0.02610000       3.59290000       0.36480000
H        2.14880000       3.36910000       1.67390000
H        3.07240000       3.58620000       0.18890000
H        1.30980000       5.65080000       1.61480000
H        3.00600000       5.77510000       1.22220000
H        1.83550000       7.14210000      -0.49580000
H        1.00320000       5.96300000      -2.42850000
H        1.75090000       3.41830000      -2.13520000
H        0.02710000       3.71090000      -2.04470000
