18
Properties=species:S:1:pos:R:3 gdb_126005=T pbc="F F F"
C       -0.24330000       1.55870000      -0.06300000
C        0.01720000       0.05230000       0.02710000
C        0.93970000      -0.47350000      -1.13120000
N        1.76250000      -1.58400000      -0.55770000
C        1.74560000      -1.32050000       0.81170000
C        0.78910000      -0.42910000       1.22900000
C        0.90110000      -0.43460000       2.63380000
N        1.86820000      -1.25380000       3.05010000
N        2.37120000      -1.80820000       1.89900000
H        0.69350000       2.12120000       0.00600000
H       -0.73340000       1.82070000      -1.00730000
H       -0.89480000       1.89000000       0.75160000
H       -0.95090000      -0.46570000      -0.03350000
H        0.36970000      -0.83460000      -1.99100000
H        1.58910000       0.34620000      -1.47020000
H        2.67960000      -1.65930000      -0.98130000
H        0.34130000       0.12290000       3.37130000
H        3.12590000      -2.46750000       1.96790000
