21
Properties=species:S:1:pos:R:3 gdb_77528=T pbc="F F F"
C       -0.14330000       1.53360000      -0.00130000
C        0.01910000       0.02030000       0.01300000
C        1.13890000      -0.59700000      -0.87570000
O        1.27420000      -0.11260000      -2.17470000
C        2.14920000      -0.27470000       0.27270000
C        0.89210000      -0.60420000       1.14120000
O        0.70950000      -0.12910000       2.43780000
C        0.71500000      -2.11550000       0.87800000
C        0.90500000      -2.10990000      -0.67360000
H        0.80020000       2.07190000       0.11350000
H       -0.59170000       1.85330000      -0.94690000
H       -0.80260000       1.84730000       0.81380000
H       -0.96400000      -0.45010000      -0.10900000
H        2.00180000      -0.57950000      -2.59980000
H        3.03200000      -0.91400000       0.37840000
H        2.43150000       0.77600000       0.31110000
H        1.31380000      -0.59930000       3.02260000
H        1.47090000      -2.71660000       1.39550000
H       -0.27300000      -2.46610000       1.18900000
H        0.02150000      -2.45750000      -1.21640000
H        1.76390000      -2.70790000      -0.99790000
