13
Properties=species:S:1:pos:R:3 gdb_25207=T pbc="F F F"
N       -0.14780000       1.41340000       0.19580000
C       -0.04770000       0.19820000      -0.11820000
O        1.16240000      -0.30610000      -0.55540000
C        1.46090000      -1.56350000      -0.95290000
C        0.66310000      -2.56110000      -1.37200000
N       -0.70690000      -2.60000000      -1.54190000
C       -1.53320000      -1.78950000      -1.00080000
C       -1.29470000      -0.67830000      -0.02870000
O       -2.15050000      -0.40390000       0.77800000
H        0.73870000       1.90180000       0.05400000
H        2.53700000      -1.69510000      -0.96000000
H        1.17610000      -3.46460000      -1.68550000
H       -2.59620000      -1.93940000      -1.19570000
