15
Properties=species:S:1:pos:R:3 gdb_20972=T pbc="F F F"
C        0.00410000       1.39960000      -0.00180000
N        0.01590000      -0.02080000      -0.29080000
C        1.21080000      -0.74600000       0.12290000
C       -1.19480000      -0.66490000      -0.15500000
C       -2.46050000      -0.19120000       0.04660000
O       -3.30390000      -1.23970000       0.02640000
N       -2.52680000      -2.38450000      -0.16860000
N       -1.31560000      -2.03510000      -0.27300000
H        0.96940000       1.82970000      -0.27970000
H       -0.76980000       1.89470000      -0.59740000
H       -0.18130000       1.62290000       1.06290000
H        1.34150000      -0.75890000       1.21710000
H        1.15130000      -1.77540000      -0.23010000
H        2.08680000      -0.26890000      -0.32500000
H       -2.89050000       0.78110000       0.20440000
