18
Properties=species:S:1:pos:R:3 gdb_40319=T pbc="F F F"
C       -0.49330000       0.54680000      -0.60320000
O        0.27430000       1.39150000       0.27160000
C        0.46610000      -0.02010000       0.35040000
C        0.00080000      -0.68300000       1.62080000
C        0.47640000      -0.12360000       2.91390000
N       -0.92140000       0.05990000       2.48210000
C       -0.24840000      -2.15560000       1.47590000
C       -1.36870000      -2.82240000       2.14600000
O       -1.42230000      -2.52890000       0.74630000
H       -1.55600000       0.48890000      -0.38010000
H       -0.23300000       0.61950000      -1.65680000
H        1.42710000      -0.36680000      -0.03290000
H        0.61070000      -0.77870000       3.77010000
H        1.14120000       0.73520000       2.87710000
H       -1.01660000       0.99980000       2.09830000
H        0.63370000      -2.74780000       1.22350000
H       -1.28860000      -3.87920000       2.39720000
H       -2.02690000      -2.22230000       2.76810000
