18
Properties=species:S:1:pos:R:3 gdb_84422=T pbc="F F F"
C       -0.25110000       1.52300000      -0.00860000
C        0.03310000       0.02650000      -0.02310000
C        0.86350000      -0.46050000      -1.26300000
O        1.57270000       0.57290000      -1.94040000
C        1.79080000      -1.48480000      -0.65800000
C        1.77720000      -1.38160000       0.67470000
N        0.83650000      -0.45290000       1.12700000
C        0.61290000      -0.19300000       2.45120000
O        1.24660000      -0.68000000       3.36390000
H        0.67530000       2.09930000       0.03790000
H       -0.77290000       1.80400000      -0.92680000
H       -0.88290000       1.80500000       0.83790000
H       -0.91230000      -0.53100000      -0.02350000
H        0.18540000      -0.86550000      -2.01920000
H        2.37750000       0.74670000      -1.43900000
H        2.44140000      -2.12200000      -1.23870000
H        2.35970000      -1.90130000       1.42150000
H       -0.21610000       0.52050000       2.60470000
