18
Properties=species:S:1:pos:R:3 gdb_46113=T pbc="F F F"
O        0.20100000       0.07080000      -0.17490000
C        0.06820000       1.27050000      -0.08920000
C       -1.10410000       2.03500000       0.53660000
C       -0.86670000       3.50340000       0.14640000
C        0.64670000       3.58690000      -0.18510000
C        1.49820000       4.11460000       0.99800000
C        2.92640000       4.06310000       0.71410000
C        4.09390000       3.99690000       0.43450000
N        0.96270000       2.21420000      -0.52800000
H       -2.05410000       1.62960000       0.18410000
H       -1.06860000       1.87350000       1.61950000
H       -1.44360000       3.75450000      -0.74750000
H       -1.14820000       4.21350000       0.92770000
H        0.82700000       4.24270000      -1.04380000
H        1.19750000       5.14740000       1.21520000
H        1.27540000       3.52310000       1.89530000
H        5.13100000       3.95040000       0.21090000
H        1.88570000       1.93860000      -0.82730000
