22
Properties=species:S:1:pos:R:3 gdb_88442=T pbc="F F F"
C        0.93300000       3.64150000       0.59840000
C        0.59080000       2.29490000       0.00870000
N        1.71080000       1.45980000      -0.44960000
C        0.86100000       0.97560000       0.65390000
C        1.52300000       0.75790000       1.99350000
C        2.82430000      -0.01280000       1.94010000
O        1.51360000       1.85540000       2.92540000
C        0.69920000       0.71480000       3.21820000
C       -0.79470000       0.91920000       3.25330000
H        1.84040000       3.58950000       1.19900000
H        1.08420000       4.36840000      -0.20760000
H        0.12340000       4.00560000       1.23840000
H       -0.29420000       2.30450000      -0.62920000
H        1.48160000       0.97840000      -1.31440000
H        0.15600000       0.18160000       0.40350000
H        3.54350000       0.51720000       1.31040000
H        3.24180000      -0.13140000       2.94290000
H        2.66810000      -1.00630000       1.50460000
H        1.08770000       0.10800000       4.03990000
H       -1.14540000       1.47860000       2.38380000
H       -1.31010000      -0.04760000       3.27810000
H       -1.08050000       1.47120000       4.15490000
