29
Properties=species:S:1:pos:R:3 gdb_117838=T pbc="F F F"
C       -0.01550000       1.68510000       0.16490000
C        0.04280000       0.16480000      -0.02000000
C        0.65190000      -0.54380000       1.19720000
C        0.71940000      -2.09520000       1.17000000
C       -0.70900000      -2.67410000       1.13460000
C        1.48010000      -2.61530000      -0.07710000
C        2.93710000      -2.16330000      -0.23070000
C        1.42080000      -2.52680000       2.48770000
C        1.66440000      -4.02680000       2.69290000
H        0.98460000       2.10530000       0.32050000
H       -0.45040000       2.17780000      -0.71050000
H       -0.62370000       1.95500000       1.03560000
H       -0.96970000      -0.21010000      -0.21040000
H        0.62640000      -0.06290000      -0.92000000
H        1.66400000      -0.14830000       1.35550000
H        0.08220000      -0.25010000       2.09030000
H       -1.24070000      -2.37910000       0.22500000
H       -0.69870000      -3.76810000       1.15700000
H       -1.29700000      -2.32820000       1.99250000
H        1.44870000      -3.71150000      -0.06830000
H        0.92050000      -2.31980000      -0.97270000
H        3.02460000      -1.07420000      -0.29750000
H        3.55910000      -2.49340000       0.60730000
H        3.37170000      -2.58190000      -1.14420000
H        2.38210000      -2.00340000       2.56110000
H        0.81810000      -2.15060000       3.32490000
H        2.32420000      -4.44560000       1.92660000
H        2.14140000      -4.20170000       3.66270000
H        0.73400000      -4.60260000       2.68080000
