14
Properties=species:S:1:pos:R:3 gdb_9128=T pbc="F F F"
C       -0.04890000       1.33920000       0.07060000
O        0.02140000      -0.09030000      -0.02700000
C        0.64800000      -0.55140000      -1.12690000
O        1.12560000       0.14900000      -1.98490000
C        0.66970000      -1.99400000      -1.13820000
C        0.72210000      -3.19520000      -1.20820000
C        0.76130000      -4.64970000      -1.24930000
O        1.42710000      -5.08140000      -2.42420000
H        0.95370000       1.77340000       0.09430000
H       -0.59280000       1.75710000      -0.78020000
H       -0.57740000       1.54340000       1.00140000
H        1.26730000      -5.00860000      -0.33790000
H       -0.27430000      -5.02560000      -1.20530000
H        1.43370000      -6.04400000      -2.41590000
