19
Properties=species:S:1:pos:R:3 gdb_126302=T pbc="F F F"
C       -0.18190000       1.52120000      -0.02570000
C       -0.04290000      -0.01150000       0.02000000
C        0.83340000      -0.49880000       1.13200000
C        2.13450000      -0.95920000       1.15080000
C        2.41510000      -1.24110000       2.51020000
C        3.68950000      -1.76320000       3.10170000
O        4.83060000      -1.01260000       2.69810000
N        1.36860000      -0.96650000       3.28670000
N        0.42500000      -0.52490000       2.43030000
H        0.79510000       1.99590000      -0.15430000
H       -0.82480000       1.82730000      -0.85650000
H       -0.61980000       1.90930000       0.89950000
H       -1.03840000      -0.46580000       0.10660000
H        0.37470000      -0.36990000      -0.92560000
H        2.79190000      -1.07930000       0.30470000
H        3.58030000      -1.79830000       4.19460000
H        3.88630000      -2.78410000       2.75590000
H        4.66430000      -0.09460000       2.93650000
H       -0.47520000      -0.26040000       2.79420000
