19
Properties=species:S:1:pos:R:3 gdb_22963=T pbc="F F F"
C        0.43290000       0.86680000      -0.37640000
O       -0.45480000       0.18670000       0.49010000
C        0.17680000      -0.51480000       1.54110000
C        0.55560000      -1.94360000       1.15760000
N        1.77770000      -2.09280000       0.29760000
C        2.39050000      -3.07230000       1.24590000
C        1.26470000      -2.77190000       2.20920000
N        0.97650000      -3.00620000       3.41700000
O        1.96300000      -3.80260000       4.02490000
H        1.12400000       0.18640000      -0.88850000
H       -0.18250000       1.38460000      -1.11680000
H        1.03130000       1.61250000       0.16950000
H        1.07120000       0.01840000       1.89470000
H       -0.54140000      -0.56560000       2.36790000
H       -0.33380000      -2.44210000       0.74720000
H        1.57590000      -2.49220000      -0.61170000
H        2.40380000      -4.11650000       0.90630000
H        3.39870000      -2.80490000       1.58020000
H        1.62640000      -3.89470000       4.92280000
