17
Properties=species:S:1:pos:R:3 gdb_52735=T pbc="F F F"
C       -0.02390000       1.57400000      -0.03250000
C        0.04650000       0.12080000      -0.00840000
C        0.12280000      -1.08010000       0.00310000
C        0.16230000      -2.52970000       0.02190000
C       -1.24080000      -3.12690000       0.25570000
O       -1.42780000      -4.23540000       0.67990000
C        0.69260000      -3.15340000      -1.31320000
C        1.22900000      -4.55990000      -1.17660000
O        0.65030000      -2.54380000      -2.34770000
H        0.89560000       2.02050000       0.36100000
H       -0.16380000       1.94390000      -1.05380000
H       -0.85850000       1.94210000       0.57400000
H        0.79260000      -2.91390000       0.83270000
H       -2.07100000      -2.44750000      -0.02450000
H        0.55880000      -5.16810000      -0.56200000
H        1.36690000      -5.00380000      -2.16290000
H        2.19550000      -4.52390000      -0.65910000
