15
Properties=species:S:1:pos:R:3 gdb_125651=T pbc="F F F"
C       -0.01750000       1.52040000      -0.09110000
C       -0.00660000       0.03230000       0.04230000
N       -0.03380000      -0.75080000      -1.04110000
N       -0.01560000      -2.04330000      -0.61210000
C        0.02360000      -2.10130000       0.74260000
C        0.03020000      -0.79040000       1.19180000
N        0.07000000      -0.91500000       2.57090000
C        0.08390000      -2.26610000       2.82970000
N        0.05670000      -3.02470000       1.74900000
H        0.87680000       1.97300000       0.35300000
H       -0.04990000       1.79170000      -1.14820000
H       -0.88820000       1.96480000       0.40500000
H       -0.03100000      -2.78550000      -1.28840000
H        0.08650000      -0.18510000       3.26130000
H        0.11450000      -2.64100000       3.84260000
