16
Properties=species:S:1:pos:R:3 gdb_74198=T pbc="F F F"
N        0.13820000       1.28860000       0.47410000
C        0.00130000      -0.00840000       0.07550000
C       -1.20540000      -0.62790000       0.02210000
C       -1.46840000      -2.00930000      -0.32330000
O       -2.57710000      -2.43060000      -0.60820000
N       -0.41060000      -2.95750000      -0.27370000
C        0.80440000      -2.87750000       0.38950000
N        1.59810000      -1.89050000       0.48210000
C        1.28880000      -0.70540000      -0.30920000
H        0.98320000       1.78660000       0.25330000
H       -0.68490000       1.85200000       0.61330000
H       -2.11090000      -0.05860000       0.20550000
H       -0.79590000      -3.88760000      -0.37900000
H        1.09450000      -3.81380000       0.86990000
H        1.22260000      -0.97860000      -1.37340000
H        2.12540000      -0.00740000      -0.20340000
