20
Properties=species:S:1:pos:R:3 gdb_14094=T pbc="F F F"
C       -0.06990000       1.49830000      -0.02450000
C        0.08080000      -0.00650000      -0.05000000
C        1.46880000      -0.63800000      -0.12290000
C        0.66480000      -0.72130000       1.13140000
O        1.05430000      -0.01220000       2.31120000
C        0.47880000      -1.04040000       3.14880000
C        0.13740000      -1.92080000       1.92320000
C       -1.31200000      -2.34000000       1.72920000
H        0.68220000       1.95020000       0.62770000
H        0.03920000       1.92710000      -1.02650000
H       -1.05360000       1.78910000       0.36030000
H       -0.70340000      -0.54060000      -0.58270000
H        1.61040000      -1.53490000      -0.71850000
H        2.32050000       0.03560000      -0.10810000
H        1.21080000      -1.44320000       3.85710000
H       -0.39510000      -0.67130000       3.70200000
H        0.79930000      -2.78880000       1.84350000
H       -1.98520000      -1.48000000       1.80670000
H       -1.46570000      -2.79940000       0.74670000
H       -1.61100000      -3.07390000       2.48540000
