17
Properties=species:S:1:pos:R:3 gdb_24214=T pbc="F F F"
C       -0.04460000       1.57810000      -0.04700000
C        1.51780000       1.38850000       0.00680000
C        1.19700000       0.17720000       0.96050000
C       -0.05030000       0.00460000       0.01480000
C        0.65150000      -0.30770000      -1.28390000
C        0.76090000      -1.02640000      -2.41790000
O        1.84630000      -0.58230000      -3.13850000
C        2.42570000       0.44330000      -2.42660000
C        1.73280000       0.64680000      -1.28950000
H       -0.43990000       2.03130000       0.86630000
H       -0.46890000       2.05370000      -0.93390000
H        2.18900000       2.19340000       0.29880000
H        1.91920000      -0.64090000       1.00410000
H        0.91460000       0.50290000       1.96550000
H       -0.93070000      -0.55990000       0.31480000
H        0.21260000      -1.83660000      -2.86860000
H        3.29500000       0.88450000      -2.88470000
