24
Properties=species:S:1:pos:R:3 gdb_7392=T pbc="F F F"
C       -0.12310000       1.56630000      -0.06680000
C       -0.05040000       0.03870000      -0.00870000
C        0.73520000      -0.48290000       1.20020000
C        0.87090000      -2.01110000       1.21790000
O        1.57370000      -2.48280000       0.06590000
C        1.46930000      -2.57780000       2.52690000
C        1.34900000      -4.10750000       2.54690000
C        2.92550000      -2.14510000       2.75800000
H        0.87730000       2.00940000      -0.13170000
H       -0.69280000       1.90560000      -0.93760000
H       -0.60630000       1.97720000       0.82710000
H       -1.06640000      -0.37680000       0.01930000
H        0.41050000      -0.35210000      -0.92240000
H        1.73660000      -0.02790000       1.20590000
H        0.24900000      -0.15590000       2.12920000
H       -0.13350000      -2.44150000       1.10670000
H        2.43450000      -2.05080000       0.05300000
H        0.86130000      -2.17240000       3.34790000
H        1.88100000      -4.54120000       1.69490000
H        1.77000000      -4.52660000       3.46650000
H        0.30260000      -4.42440000       2.48130000
H        3.58110000      -2.52170000       1.96370000
H        3.03600000      -1.05750000       2.80530000
H        3.30210000      -2.55410000       3.70060000
