17
Properties=species:S:1:pos:R:3 gdb_49737=T pbc="F F F"
O        0.07080000       0.05490000      -0.97960000
C       -0.01600000       1.19030000      -0.57450000
C        1.16210000       2.03960000      -0.28790000
C        1.05800000       3.57070000      -0.28550000
O       -0.20990000       4.13050000      -0.45730000
C       -0.71470000       4.66560000       0.76460000
C       -0.85660000       3.55520000       1.79020000
O        0.38530000       2.89680000       2.03860000
C        1.31200000       2.87530000       1.00470000
H       -1.00420000       1.66290000      -0.40800000
H        2.09200000       1.61480000      -0.65140000
H        1.85340000       4.12970000      -0.77570000
H       -0.05040000       5.45770000       1.13950000
H       -1.69000000       5.10210000       0.53530000
H       -1.19220000       3.95100000       2.75370000
H       -1.60040000       2.82600000       1.43870000
H        2.31860000       2.88150000       1.40960000
