20
Properties=species:S:1:pos:R:3 gdb_11070=T pbc="F F F"
C       -0.05430000       1.57120000       0.06270000
C        0.07140000       0.07560000       0.05290000
C        0.56530000      -0.76790000      -1.12770000
C        1.24180000      -1.75840000      -0.12510000
C        0.73970000      -0.90760000       1.04790000
C        1.48480000      -0.68170000       2.33130000
C       -0.75890000      -0.82050000       0.94950000
O       -1.36970000      -0.22580000       2.06090000
H        0.89240000       2.05590000      -0.20170000
H       -0.80630000       1.91070000      -0.66230000
H       -0.35170000       1.93420000       1.05080000
H       -0.21230000      -1.18180000      -1.78070000
H        1.29460000      -0.24370000      -1.75110000
H        0.89540000      -2.79800000      -0.14730000
H        2.33150000      -1.75530000      -0.21150000
H        2.48490000      -0.27360000       2.14530000
H        0.94340000       0.00780000       2.98270000
H        1.61060000      -1.62490000       2.87790000
H       -1.32730000      -1.65150000       0.51780000
H       -2.12540000       0.28310000       1.74910000
