16
Properties=species:S:1:pos:R:3 gdb_126127=T pbc="F F F"
C        0.06050000       1.52770000       0.00970000
C       -0.04750000       0.00540000       0.00320000
C       -1.47960000      -0.49080000       0.01270000
O       -2.44170000       0.24660000       0.02430000
C       -1.69950000      -1.96900000       0.00760000
N       -0.69470000      -2.81910000      -0.00480000
O       -1.26620000      -4.07470000      -0.00600000
C       -2.60760000      -3.94690000       0.00600000
C       -2.95700000      -2.63920000       0.01480000
H        1.10930000       1.83600000       0.00240000
H       -0.43340000       1.96010000      -0.86430000
H       -0.41870000       1.95160000       0.89590000
H        0.45090000      -0.43460000      -0.87010000
H        0.46540000      -0.44290000       0.86390000
H       -3.16280000      -4.87170000       0.00630000
H       -3.93510000      -2.19130000       0.02490000
