22
Properties=species:S:1:pos:R:3 gdb_118430=T pbc="F F F"
C        0.04870000       1.54090000      -0.07540000
C        0.05890000       0.00990000      -0.04590000
C       -1.35240000      -0.58450000       0.03910000
C       -1.39230000      -2.12260000       0.05660000
N       -0.90240000      -2.67320000       1.32620000
H       -0.29750000      -2.00760000       1.79120000
H       -2.73060000      -3.02870000       1.61130000
C       -0.22850000      -3.96770000       1.20770000
C       -2.84830000      -2.58230000      -0.17600000
O       -3.40690000      -2.47740000      -1.23510000
O       -3.43500000      -3.07270000       0.92400000
H        1.06350000       1.94350000      -0.14690000
H       -0.52070000       1.91370000      -0.93340000
H       -0.41110000       1.95210000       0.82990000
H        0.55360000      -0.37430000      -0.94710000
H        0.67150000      -0.32760000       0.80150000
H       -1.86800000      -0.20700000       0.93300000
H       -1.93970000      -0.25500000      -0.82370000
H       -0.80990000      -2.49390000      -0.79970000
H       -0.93730000      -4.71520000       0.83750000
H        0.63280000      -3.94920000       0.52240000
H        0.11510000      -4.29180000       2.19360000
