14
Properties=species:S:1:pos:R:3 gdb_124334=T pbc="F F F"
C       -0.03230000       1.51910000      -0.03780000
C       -0.02320000       0.00870000       0.09630000
O       -0.03520000      -0.57000000       1.14600000
N        0.00100000      -0.69520000      -1.13840000
C        0.01850000      -0.15570000      -2.41150000
N        0.03950000      -1.03020000      -3.34710000
O        0.03730000      -2.28040000      -2.68360000
C        0.01360000      -2.09990000      -1.31710000
N        0.00500000      -2.99280000      -0.43450000
H        0.86080000       1.88000000      -0.55820000
H       -0.91160000       1.86700000      -0.58950000
H       -0.05300000       1.93670000       0.96770000
H        0.01460000       0.90370000      -2.60960000
H        0.01840000      -3.91560000      -0.86600000
