21
Properties=species:S:1:pos:R:3 gdb_121538=T pbc="F F F"
C       -0.26230000       1.55250000       0.02740000
C       -0.01420000       0.04190000       0.02500000
C        0.72140000      -0.44010000      -1.22880000
C        0.97150000      -1.96200000      -1.22120000
C        1.66630000      -2.43620000      -2.41170000
C        2.23830000      -2.81040000      -3.40430000
C        2.91640000      -3.23040000      -4.59990000
C        3.78870000      -4.42140000      -4.62880000
O        2.49370000      -4.46230000      -5.21290000
H        0.68040000       2.10850000      -0.02250000
H       -0.86980000       1.85550000      -0.83250000
H       -0.78770000       1.86850000       0.93390000
H        0.56550000      -0.23660000       0.91530000
H       -0.97230000      -0.48790000       0.10940000
H        0.14500000      -0.17860000      -2.12430000
H        1.68340000       0.07870000      -1.31970000
H        1.54810000      -2.23250000      -0.32610000
H        0.01160000      -2.48800000      -1.13060000
H        3.12740000      -2.43970000      -5.31970000
H        4.62500000      -4.45080000      -5.32670000
H        3.91270000      -5.00320000      -3.71740000
