19
Properties=species:S:1:pos:R:3 gdb_92877=T pbc="F F F"
C        0.08140000       1.58690000       0.18940000
C       -0.03590000       0.06330000      -0.02770000
C        0.48840000      -0.38160000      -1.40510000
C        1.94640000      -0.14070000      -1.68840000
C        2.99520000      -0.36210000      -0.88900000
C        3.02690000      -0.94000000       0.47570000
O        4.10860000      -1.27510000       0.93940000
C        1.81850000      -1.11610000       1.31860000
C        0.56540000      -0.68390000       1.13550000
H        1.12710000       1.90490000       0.17000000
H       -0.46010000       2.12850000      -0.59350000
H       -0.34160000       1.87760000       1.15560000
H       -1.10740000      -0.17560000      -0.02690000
H        0.27950000      -1.45380000      -1.53030000
H       -0.10470000       0.12720000      -2.17340000
H        2.16630000       0.22500000      -2.68980000
H        3.99690000      -0.17710000      -1.26730000
H        2.06590000      -1.61640000       2.25120000
H       -0.12720000      -0.85500000       1.95890000
