14
Properties=species:S:1:pos:R:3 gdb_133019=T pbc="F F F"
C        0.00260000       1.43290000      -0.22430000
N        0.00580000      -0.01890000      -0.20530000
C       -1.04710000      -0.62560000       0.15010000
O       -2.20280000       0.05190000       0.52150000
C       -3.30390000      -0.65750000       0.89470000
C       -3.28000000      -1.99750000       0.90570000
F       -4.34860000      -2.69790000       1.26800000
N       -2.18460000      -2.73870000       0.55480000
C       -1.13480000      -2.08280000       0.19940000
H        0.98200000       1.78990000      -0.54850000
H       -0.75940000       1.82940000      -0.90920000
H       -0.21320000       1.85300000       0.76770000
H       -4.14800000      -0.03900000       1.16440000
H       -0.23720000      -2.62260000      -0.08910000
