18
Properties=species:S:1:pos:R:3 gdb_108385=T pbc="F F F"
C        0.17090000       1.53890000       0.15040000
C       -0.09720000       0.04020000      -0.04610000
C        0.60260000      -0.52580000      -1.24930000
C        0.19860000      -0.33150000      -2.71440000
O        0.63170000      -1.68330000      -3.04790000
C        0.96330000      -1.91790000      -1.69270000
C        2.06760000      -0.98570000      -1.22190000
C        3.06840000      -0.46800000      -2.11210000
N        3.86420000      -0.03320000      -2.83040000
H        1.23970000       1.73360000       0.28330000
H       -0.16720000       2.11910000      -0.71440000
H       -0.35520000       1.91650000       1.03170000
H        0.21820000      -0.51320000       0.84670000
H       -1.17600000      -0.13420000      -0.14860000
H       -0.88460000      -0.23820000      -2.84570000
H        0.72320000       0.42930000      -3.30000000
H        0.80320000      -2.90740000      -1.27910000
H        2.42230000      -1.19830000      -0.21700000
