20
Properties=species:S:1:pos:R:3 gdb_70896=T pbc="F F F"
C       -0.07530000       1.45970000       0.01040000
C        0.07500000      -0.03330000      -0.03960000
C        0.27700000      -0.79930000      -1.34430000
C        0.21380000      -2.21260000      -0.73660000
O        0.32710000      -3.23860000      -1.68100000
C        1.26750000      -2.11540000       0.39720000
C        0.69100000      -0.86500000       1.03960000
N       -0.79380000      -0.85670000       0.85540000
C       -1.08690000      -2.08650000       0.08940000
H        0.82300000       1.95870000      -0.37010000
H       -0.92600000       1.78990000      -0.59610000
H       -0.24630000       1.79290000       1.03760000
H       -0.51890000      -0.62670000      -2.07560000
H        1.24170000      -0.58840000      -1.81580000
H        0.27490000      -4.08190000      -1.21880000
H        1.25860000      -2.98850000       1.06000000
H        2.28170000      -1.97360000       0.01200000
H        1.06620000      -0.44880000       1.96770000
H       -1.97500000      -1.95070000      -0.53500000
H       -1.25590000      -2.92910000       0.77010000
