11
Properties=species:S:1:pos:R:3 gdb_21409=T pbc="F F F"
N       -0.15960000       1.31500000       0.00910000
C       -0.02960000       0.06250000       0.00140000
N       -1.03960000      -0.88510000       0.00190000
C       -0.45810000      -2.12580000      -0.00830000
C       -1.23610000      -3.39290000      -0.01090000
O       -0.74200000      -4.48690000      -0.01980000
N        0.83560000      -2.06230000      -0.01540000
O        1.13380000      -0.68840000      -0.00950000
H        0.74220000       1.78400000       0.00650000
H       -2.01810000      -0.65500000       0.00880000
H       -2.33690000      -3.23740000      -0.00370000
