15
Properties=species:S:1:pos:R:3 gdb_132157=T pbc="F F F"
N        0.09540000       1.39650000       0.13480000
C       -0.01010000       0.00550000       0.02620000
C       -1.17040000      -0.69790000       0.00660000
C       -1.20730000      -2.14980000       0.00120000
N       -2.31570000      -2.80990000      -0.00560000
C        0.12930000      -2.74610000      -0.02300000
F        0.19660000      -4.08310000      -0.06050000
C        1.26170000      -2.02430000      -0.01580000
N        1.20790000      -0.64070000      -0.01790000
H        0.69230000       1.80940000      -0.57330000
H       -0.80890000       1.84840000       0.12580000
H       -2.11960000      -0.17670000      -0.02240000
H       -2.11470000      -3.81090000      -0.02490000
H        2.24350000      -2.47810000      -0.02980000
H        2.01910000      -0.12660000       0.28600000
