18
Properties=species:S:1:pos:R:3 gdb_8296=T pbc="F F F"
C       -0.00670000       1.56110000      -0.21640000
C       -0.08820000       0.05240000       0.02860000
C        0.91500000      -0.43420000       1.08120000
C        0.82160000      -1.92140000       1.35170000
C        1.53580000      -2.48890000       2.59290000
C        0.11680000      -2.80730000       3.06540000
O       -0.41050000      -3.30600000       4.00610000
O       -0.48110000      -2.29420000       1.94300000
H        0.98930000       1.85470000      -0.56640000
H       -0.73210000       1.87930000      -0.97100000
H       -0.21350000       2.12260000       0.70130000
H       -1.09840000      -0.21960000       0.35440000
H        0.08700000      -0.48460000      -0.91290000
H        1.94090000      -0.21290000       0.75590000
H        0.76020000       0.10730000       2.02380000
H        0.96960000      -2.50740000       0.43950000
H        2.16480000      -3.36720000       2.43990000
H        2.06350000      -1.76190000       3.21360000
