18
Properties=species:S:1:pos:R:3 gdb_13175=T pbc="F F F"
O       -0.33690000       1.32790000      -0.03950000
C       -0.03830000      -0.06740000      -0.01420000
C        0.72350000      -0.47260000      -1.19910000
C        1.39080000      -0.77410000      -2.15300000
C        0.67940000      -0.48970000       1.27640000
C        1.99240000       0.23310000       1.68760000
C        1.49300000       0.20900000       3.15810000
C        0.05640000      -0.05250000       2.63020000
H        0.45630000       1.78930000      -0.33130000
H       -1.01870000      -0.56160000      -0.03390000
H        1.96220000      -1.04930000      -3.00500000
H        0.83180000      -1.57340000       1.24430000
H        2.93850000      -0.25860000       1.45300000
H        2.02410000       1.25620000       1.29970000
H        1.88890000      -0.65150000       3.70510000
H        1.65440000       1.10610000       3.76010000
H       -0.50610000       0.87670000       2.50930000
H       -0.56180000      -0.77970000       3.16210000
