18
Properties=species:S:1:pos:R:3 gdb_11398=T pbc="F F F"
C       -0.54960000       0.75140000       0.09790000
O        0.15760000      -0.45700000      -0.07220000
C        0.98720000      -0.49510000      -1.24070000
C        1.72890000      -1.84040000      -1.22830000
C        0.79200000      -2.79980000      -1.99580000
O       -0.12550000      -3.48780000      -1.14980000
C        0.06290000      -1.84920000      -2.92980000
C        0.16370000      -0.58610000      -2.51680000
H        0.13030000       1.61760000       0.10890000
H       -1.30150000       0.91190000      -0.68820000
H       -1.06010000       0.69400000       1.06240000
H        1.66290000       0.37270000      -1.22290000
H        2.67790000      -1.73610000      -1.76300000
H        1.93250000      -2.18690000      -0.21350000
H        1.33970000      -3.58650000      -2.52240000
H       -0.56730000      -2.80690000      -0.62590000
H       -0.52530000      -2.20110000      -3.77000000
H       -0.31810000       0.27030000      -2.97470000
