21
Properties=species:S:1:pos:R:3 gdb_103808=T pbc="F F F"
C        0.41690000       1.49610000      -0.09820000
C        0.28860000      -0.02180000       0.08300000
C        0.77310000      -0.55290000       1.42750000
C        0.14680000       0.07150000       2.65960000
C        1.17950000      -2.00070000       1.48900000
N        2.17000000      -0.93970000       1.60020000
C        3.20020000      -0.71780000       0.68270000
N        3.96780000      -1.84160000       0.44690000
O        3.43210000       0.35820000       0.16830000
H        1.45920000       1.80220000       0.00950000
H        0.07170000       1.78580000      -1.09550000
H       -0.19160000       2.04370000       0.62830000
H       -0.76310000      -0.31930000      -0.02590000
H        0.83870000      -0.52910000      -0.71640000
H       -0.94460000      -0.01440000       2.62140000
H        0.50410000      -0.42310000       3.56610000
H        0.40110000       1.13250000       2.73330000
H        0.99930000      -2.58370000       2.38990000
H        1.15640000      -2.56950000       0.56160000
H        3.94990000      -2.58070000       1.13170000
H        4.86750000      -1.64730000       0.03560000
