23
Properties=species:S:1:pos:R:3 gdb_100153=T pbc="F F F"
C        0.03600000       1.50540000       0.16400000
C       -0.01820000      -0.00930000      -0.06330000
C        0.62970000      -0.53020000      -1.37180000
C       -0.04940000       0.07830000      -2.61240000
C        2.13980000      -0.23610000      -1.39860000
C        0.40500000      -2.05350000      -1.37320000
O        0.93460000      -2.66550000      -2.55740000
C        1.86530000      -3.62730000      -2.42720000
O        2.35410000      -4.18710000      -3.36190000
H        1.06410000       1.87650000       0.20970000
H       -0.48490000       2.05560000      -0.62490000
H       -0.44530000       1.76050000       1.11310000
H        0.46440000      -0.51010000       0.78720000
H       -1.06910000      -0.32860000      -0.04640000
H        0.14100000       1.15280000      -2.68210000
H        0.32800000      -0.38950000      -3.52520000
H       -1.13490000      -0.07000000      -2.58170000
H        2.64300000      -0.65110000      -0.51730000
H        2.60580000      -0.66540000      -2.28990000
H        2.33280000       0.83980000      -1.41610000
H        0.86700000      -2.50890000      -0.48670000
H       -0.66680000      -2.27990000      -1.35310000
H        2.11910000      -3.83710000      -1.36910000
