18
Properties=species:S:1:pos:R:3 gdb_100342=T pbc="F F F"
O        0.02840000       1.43550000      -0.09840000
C        0.04950000       0.01710000       0.00540000
C       -1.40510000      -0.47980000       0.03600000
O       -1.41130000      -1.89450000       0.05400000
C       -2.13170000       0.05180000       1.28090000
O       -1.53570000      -0.60990000       2.39320000
C       -2.17110000      -0.02930000      -1.22420000
C       -1.55060000      -0.48920000      -2.46430000
N       -1.05940000      -0.83390000      -3.45160000
H        0.92560000       1.74400000      -0.25160000
H        0.55240000      -0.44940000      -0.85090000
H        0.54790000      -0.31330000       0.92690000
H       -1.27200000      -2.14640000       0.97690000
H       -2.01080000       1.13990000       1.34880000
H       -3.20140000      -0.19080000       1.20900000
H       -2.06020000      -0.43350000       3.17870000
H       -3.19240000      -0.42010000      -1.17930000
H       -2.21550000       1.06340000      -1.24560000
