16
Properties=species:S:1:pos:R:3 gdb_4492=T pbc="F F F"
C       -0.04260000       1.49210000       0.08300000
C        0.01450000       0.00600000      -0.04340000
C        0.02180000      -0.80100000      -1.16160000
C        0.05910000      -2.16320000      -0.73330000
N        0.14750000      -3.31740000      -1.54380000
C        0.08310000      -2.13980000       0.63920000
O        0.07220000      -3.16550000       1.54540000
N        0.06710000      -0.81980000       1.05340000
H        0.82820000       1.90000000       0.61240000
H       -0.06510000       1.94630000      -0.91040000
H       -0.93740000       1.83220000       0.62070000
H        0.00840000      -0.45320000      -2.18430000
H       -0.40370000      -3.21950000      -2.38840000
H       -0.19250000      -4.13080000      -1.04200000
H        0.96960000      -3.50300000       1.65400000
H        0.00450000      -0.53530000       2.01520000
