21
Properties=species:S:1:pos:R:3 gdb_60824=T pbc="F F F"
C       -0.07780000       1.54480000       0.19590000
C        0.04200000       0.02450000      -0.00970000
C       -1.34360000      -0.59250000       0.04810000
O       -1.72570000      -1.33780000       0.91470000
C        0.71550000      -0.35380000      -1.35860000
O        0.01970000       0.22730000      -2.46160000
C        2.19490000      -0.04090000      -1.38160000
C        3.19360000      -1.06590000      -0.90250000
C        3.08530000      -0.74820000      -2.37130000
H        0.90340000       2.02860000       0.18200000
H       -0.69610000       1.99840000      -0.58520000
H       -0.54070000       1.76770000       1.16120000
H        0.62350000      -0.41940000       0.80510000
H       -2.00780000      -0.29850000      -0.79470000
H        0.59970000      -1.43660000      -1.49860000
H        0.36030000       1.11780000      -2.59290000
H        2.44310000       0.99750000      -1.17190000
H        4.06400000      -0.71720000      -0.35850000
H        2.81200000      -2.02230000      -0.56000000
H        2.62360000      -1.48490000      -3.02000000
H        3.88520000      -0.18420000      -2.83750000
