17
Properties=species:S:1:pos:R:3 gdb_1671=T pbc="F F F"
C        0.06050000       1.49700000       0.13490000
C       -0.03530000      -0.03520000      -0.02220000
C       -1.49100000      -0.50210000      -0.02300000
O       -2.04950000      -0.16870000       1.24090000
C        0.67050000      -0.47450000      -1.30290000
C        2.18110000      -0.61220000      -1.23930000
O        0.05360000      -0.70180000      -2.32040000
H        1.09590000       1.83430000       0.23640000
H       -0.37910000       1.99950000      -0.73330000
H       -0.49220000       1.80170000       1.02560000
H        0.47340000      -0.49640000       0.83450000
H       -2.02810000      -0.01560000      -0.84830000
H       -1.53110000      -1.58650000      -0.20370000
H       -2.98770000      -0.37630000       1.21670000
H        2.64380000       0.25890000      -0.76490000
H        2.43770000      -1.48180000      -0.62200000
H        2.58550000      -0.75330000      -2.24230000
