23
Properties=species:S:1:pos:R:3 gdb_89843=T pbc="F F F"
C       -0.17770000       1.54050000      -0.06180000
C        0.09140000       0.03780000      -0.03030000
C        0.92050000      -0.51140000      -1.20450000
C        1.35660000      -1.85010000      -0.65270000
C        0.78830000      -3.15980000      -1.13580000
C        2.25840000      -2.81860000      -1.34100000
O        1.53910000      -1.69210000       0.73920000
C        0.88390000      -0.49550000       1.19380000
C        1.93860000       0.44650000       1.77030000
H        0.75070000       2.11840000      -0.10320000
H       -0.77200000       1.80550000      -0.94230000
H       -0.73680000       1.86660000       0.82190000
H       -0.87250000      -0.48610000      -0.03820000
H        0.34900000      -0.59550000      -2.13210000
H        1.78820000       0.13240000      -1.39860000
H        0.55680000      -3.90100000      -0.37920000
H        0.13150000      -3.16420000      -2.00010000
H        2.60460000      -2.58600000      -2.34290000
H        2.97930000      -3.34010000      -0.72130000
H        0.19000000      -0.77880000       1.99650000
H        2.62640000       0.80120000       0.99610000
H        1.47690000       1.31480000       2.25120000
H        2.52700000      -0.08770000       2.52130000
