21
Properties=species:S:1:pos:R:3 gdb_90879=T pbc="F F F"
C       -0.65240000       1.42600000      -0.06010000
C       -0.04050000       0.03120000      -0.00790000
C        1.11890000      -0.31030000      -0.99940000
C        1.99700000      -0.80590000       0.18210000
C        3.09830000       0.15850000       0.66000000
C        3.03510000       0.03200000       2.20090000
C        1.69510000       0.74730000       1.89390000
O        2.37450000       1.42610000       0.78570000
C        0.87910000      -0.35580000       1.19230000
H        0.12180000       2.19480000       0.00100000
H       -1.20280000       1.57110000      -0.99660000
H       -1.35940000       1.58080000       0.76330000
H       -0.83820000      -0.71420000      -0.09790000
H        0.87570000      -1.07320000      -1.74290000
H        1.53210000       0.56290000      -1.51000000
H        2.30440000      -1.85260000       0.16710000
H        4.02740000       0.23880000       0.09470000
H        3.01870000      -0.96290000       2.65480000
H        3.74670000       0.69200000       2.69780000
H        1.20430000       1.42890000       2.58870000
H        0.47310000      -1.08200000       1.90010000
