17
Properties=species:S:1:pos:R:3 gdb_37851=T pbc="F F F"
C       -0.02750000       1.54920000       0.06570000
C        1.51750000       1.44360000      -0.00040000
C        2.01710000       0.84370000       1.36300000
O        0.88750000       0.59090000       2.23410000
C        0.56100000      -0.52650000       1.37190000
C       -0.01620000       0.00030000       0.00890000
C        1.32030000       0.11140000      -0.80620000
O        2.23750000      -0.86040000      -0.35830000
C        2.07670000      -0.68070000       1.01420000
H       -0.46250000       2.01720000       0.94750000
H       -0.44240000       1.98430000      -0.84630000
H        2.12960000       2.25500000      -0.39260000
H        2.82670000       1.37950000       1.85750000
H       -0.01970000      -1.29910000       1.87480000
H       -0.86580000      -0.56380000      -0.37450000
H        1.27990000       0.14740000      -1.89300000
H        2.70570000      -1.34530000       1.60070000
