18
Properties=species:S:1:pos:R:3 gdb_55963=T pbc="F F F"
O       -0.27470000      -0.05240000      -0.77600000
C       -0.01150000       1.15000000      -0.23910000
O        1.09780000       1.58890000      -0.11210000
C       -1.28300000       1.91910000       0.15870000
N       -2.43050000       1.03630000       0.27690000
H       -1.25230000      -0.13420000      -0.73080000
C       -3.74510000       1.58010000      -0.11430000
C       -4.70470000       0.78690000       0.72910000
C       -4.05600000       0.09850000       1.66280000
C       -2.57420000       0.33780000       1.57040000
H       -1.06450000       2.49220000       1.07130000
H       -1.46790000       2.64540000      -0.64060000
H       -3.83450000       2.65990000       0.10190000
H       -3.91080000       1.45870000      -1.19310000
H       -5.77640000       0.82160000       0.58070000
H       -4.49770000      -0.53460000       2.42160000
H       -1.97910000      -0.58480000       1.58700000
H       -2.21730000       0.95610000       2.41510000
