18
Properties=species:S:1:pos:R:3 gdb_10562=T pbc="F F F"
C       -0.44590000       1.45660000      -0.24640000
O       -0.36150000       0.05080000      -0.26810000
C        0.72530000      -0.42500000      -1.03540000
C        0.77240000      -1.92510000      -0.91410000
C       -0.17680000      -2.77100000      -1.75300000
C        1.27230000      -2.75840000      -2.09120000
C        1.09340000      -2.45800000       0.43960000
O        1.14850000      -3.63330000       0.71550000
H        0.45910000       1.91450000       0.18330000
H       -0.59280000       1.87230000      -1.25590000
H       -1.30530000       1.72270000       0.37330000
H        0.61800000      -0.12820000      -2.09200000
H        1.66880000       0.02030000      -0.67140000
H       -0.57200000      -3.65430000      -1.26510000
H       -0.87110000      -2.23230000      -2.38770000
H        1.60370000      -2.21740000      -2.97090000
H        1.85960000      -3.63070000      -1.82880000
H        1.29010000      -1.67920000       1.20840000
