24
Properties=species:S:1:pos:R:3 gdb_104736=T pbc="F F F"
C       -1.79490000       0.17830000      -0.84830000
C       -1.30260000      -0.94550000      -1.76880000
C        0.18050000      -0.83340000      -2.14750000
C        0.39920000      -0.06110000      -3.43450000
O       -0.12450000       1.25370000      -3.26670000
N        1.11750000      -0.59170000      -1.02410000
C        1.18820000      -1.87860000      -1.73810000
C        0.75040000      -3.07290000      -0.90550000
C        2.41090000      -2.20430000      -2.58280000
H       -1.20830000       0.19560000       0.07390000
H       -1.69110000       1.15000000      -1.33460000
H       -2.84780000       0.02800000      -0.58770000
H       -1.49820000      -1.90970000      -1.29220000
H       -1.89010000      -0.94550000      -2.69490000
H        1.46430000      -0.01050000      -3.69230000
H       -0.11550000      -0.58310000      -4.25780000
H       -0.08060000       1.70250000      -4.11620000
H        1.86250000       0.03340000      -1.32560000
H        1.61360000      -3.48920000      -0.37430000
H        0.01060000      -2.79200000      -0.15590000
H        0.33280000      -3.86650000      -1.53580000
H        3.21780000      -2.56380000      -1.93360000
H        2.19250000      -3.00340000      -3.30060000
H        2.79780000      -1.34900000      -3.13950000
