21
Properties=species:S:1:pos:R:3 gdb_96325=T pbc="F F F"
C        0.45740000       1.50040000       0.11180000
C        0.06710000       0.03390000      -0.02270000
C        0.14550000      -0.45330000      -1.48280000
C        0.36580000      -1.96830000      -1.70380000
O        1.74310000      -2.28970000      -1.77340000
C       -0.31920000      -2.88950000      -0.67640000
O        0.44140000      -2.99240000       0.52370000
C        0.35900000      -1.88170000       1.37880000
O        0.92100000      -0.71430000       0.85350000
H        1.50730000       1.63470000      -0.16600000
H       -0.15480000       2.12360000      -0.54720000
H        0.32500000       1.84360000       1.14120000
H       -0.96640000      -0.09280000       0.33620000
H       -0.77870000      -0.14040000      -1.98550000
H        0.97130000       0.04850000      -1.99840000
H       -0.04580000      -2.21650000      -2.69010000
H        2.04270000      -2.36960000      -0.85880000
H       -1.34700000      -2.55780000      -0.46130000
H       -0.35970000      -3.90550000      -1.07720000
H       -0.69490000      -1.70110000       1.65710000
H        0.94380000      -2.14840000       2.26240000
