19
Properties=species:S:1:pos:R:3 gdb_101062=T pbc="F F F"
C        0.13790000       1.55380000       0.15680000
C        0.16610000       0.02570000       0.09300000
C        0.59010000      -0.49660000      -1.28760000
O        1.87030000      -0.01950000      -1.65840000
C        0.57690000      -2.03360000      -1.34370000
C        1.51950000      -2.73630000      -2.23500000
O        1.79520000      -2.62220000      -0.83380000
C       -0.65240000      -2.68920000      -0.97110000
C       -1.69910000      -3.20580000      -0.68360000
H        1.11170000       1.97060000      -0.11280000
H       -0.60350000       1.96360000      -0.53850000
H       -0.12050000       1.90010000       1.16170000
H        0.86520000      -0.37320000       0.84040000
H       -0.81850000      -0.38560000       0.33970000
H       -0.10420000      -0.12160000      -2.04980000
H        2.50020000      -0.49070000      -1.09560000
H        1.27200000      -3.73950000      -2.57430000
H        2.15790000      -2.14180000      -2.88260000
H       -2.61830000      -3.67070000      -0.42380000
