21
Properties=species:S:1:pos:R:3 gdb_78356=T pbc="F F F"
C       -0.12160000       1.41220000       0.05790000
C        0.04220000      -0.09160000       0.11730000
C        1.38840000      -0.66510000      -0.22260000
C        0.88660000      -0.65400000       1.23560000
C        0.83570000      -2.15860000       1.20240000
C        1.03620000      -3.12750000       2.27610000
O       -0.25650000      -2.93550000       1.68170000
C        1.36730000      -2.20690000      -0.25200000
C        0.54690000      -2.93660000      -1.30790000
H        0.79530000       1.92310000       0.37120000
H       -0.35610000       1.74370000      -0.95940000
H       -0.93090000       1.74800000       0.71490000
H       -0.84820000      -0.64760000      -0.16910000
H        2.17140000      -0.05150000      -0.65190000
H        1.21100000      -0.04240000       2.06950000
H        1.51440000      -4.08360000       2.06240000
H        1.12860000      -2.78700000       3.30740000
H        2.39280000      -2.59420000      -0.24740000
H       -0.47860000      -2.56040000      -1.35790000
H        0.99890000      -2.82260000      -2.29890000
H        0.49120000      -4.00640000      -1.08240000
