20
Properties=species:S:1:pos:R:3 gdb_110389=T pbc="F F F"
C       -0.06180000       1.59820000       0.08100000
C        0.02760000       0.08220000      -0.13080000
C       -1.33330000      -0.58710000      -0.07220000
C       -1.48790000      -2.09770000       0.13080000
C       -1.21880000      -1.92340000       1.65480000
C       -2.51750000      -2.62990000       2.06870000
O       -3.12170000      -2.27240000       3.27620000
C       -2.86610000      -1.83570000       0.80340000
N       -2.01730000      -0.62580000       1.30080000
H        0.92880000       2.06160000       0.05480000
H       -0.67210000       2.07000000      -0.69700000
H       -0.52140000       1.82620000       1.04710000
H        0.47710000      -0.13440000      -1.10900000
H        0.69580000      -0.35950000       0.61780000
H       -2.00390000      -0.14810000      -0.82420000
H       -1.20240000      -2.93840000      -0.51030000
H       -0.26310000      -1.86650000       2.17670000
H       -2.53490000      -3.71990000       1.98960000
H       -3.09700000      -1.30710000       3.31750000
H       -3.82530000      -1.66230000       0.31160000
