18
Properties=species:S:1:pos:R:3 gdb_93074=T pbc="F F F"
C       -0.03400000       1.51160000       0.13260000
C        0.03010000      -0.01400000      -0.00750000
C        0.52060000      -0.39010000      -1.41130000
N        0.81830000      -1.76930000      -1.72080000
C        0.82620000      -2.76960000      -0.96840000
O        0.54410000      -2.97450000       0.37390000
C        0.55670000      -2.05220000       1.39950000
O        0.24520000      -2.43650000       2.48850000
C        0.94790000      -0.63480000       1.06680000
H        0.96500000       1.95560000       0.05200000
H       -0.65970000       1.95220000      -0.65030000
H       -0.45300000       1.80150000       1.10050000
H       -0.98380000      -0.41140000       0.13150000
H       -0.20800000      -0.05050000      -2.15830000
H        1.43750000       0.17880000      -1.62620000
H        1.06130000      -3.74910000      -1.38160000
H        1.99070000      -0.61080000       0.72480000
H        0.89180000      -0.08210000       2.00620000
