19
Properties=species:S:1:pos:R:3 gdb_82540=T pbc="F F F"
O        0.00920000       1.37930000       0.04120000
C       -0.07840000      -0.01750000       0.07000000
C       -0.45480000      -0.83270000       1.28770000
C       -1.54550000      -0.10830000       2.08800000
C       -2.42690000      -0.09000000       0.82100000
C       -3.87890000      -0.42380000       0.74110000
C       -3.40410000       0.95330000       0.32840000
C       -1.34980000      -0.79580000       0.01860000
O       -1.63970000      -1.78100000      -0.91010000
H       -0.88530000       1.73070000       0.11100000
H        0.73450000      -0.46060000      -0.50150000
H        0.18740000      -1.61980000       1.66350000
H       -1.97180000      -0.71880000       2.88740000
H       -1.25550000       0.86580000       2.49470000
H       -4.18230000      -1.11170000      -0.04090000
H       -4.43650000      -0.51290000       1.66780000
H       -3.63980000       1.78630000       0.98340000
H       -3.41560000       1.19830000      -0.72970000
H       -1.34490000      -1.48360000      -1.77670000
