17
Properties=species:S:1:pos:R:3 gdb_115095=T pbc="F F F"
O       -0.51140000       1.56630000       0.21080000
C       -0.12040000       0.20320000       0.30880000
C       -1.34820000      -0.62550000      -0.08070000
N       -1.83280000      -0.25880000      -1.40540000
C       -1.64500000      -1.09600000      -2.47710000
N       -1.47730000      -2.36010000      -2.44880000
C       -1.52260000      -2.98500000      -1.13190000
C       -1.03700000      -2.12080000       0.01860000
O       -0.43930000      -2.55800000       0.97430000
H        0.26310000       2.11780000       0.35280000
H        0.70950000      -0.02610000      -0.37640000
H        0.18240000      -0.07260000       1.32560000
H       -2.13220000      -0.41190000       0.66100000
H       -1.80180000       0.73510000      -1.58270000
H       -1.68450000      -0.59440000      -3.44510000
H       -2.56480000      -3.26490000      -0.90000000
H       -0.94540000      -3.91370000      -1.12810000
