18
Properties=species:S:1:pos:R:3 gdb_105993=T pbc="F F F"
C       -0.29410000       1.43980000       0.04430000
C        0.17580000      -0.01960000      -0.03190000
C        0.87570000      -0.48510000       1.20360000
C        2.18590000      -0.05970000       1.92660000
C        2.40210000      -1.44100000       2.43460000
N        1.63420000      -0.45170000       3.27130000
C        0.34630000      -0.88740000       2.57760000
C        1.08370000      -1.90230000       1.73210000
O        0.68960000      -3.05570000       1.11550000
H        0.54980000       2.11910000       0.20380000
H       -0.79320000       1.73940000      -0.88230000
H       -0.99590000       1.58370000       0.87180000
H       -0.68120000      -0.68060000      -0.21170000
H        0.84060000      -0.14890000      -0.89660000
H        2.86990000       0.77270000       1.79940000
H        3.28860000      -1.94590000       2.80240000
H       -0.64160000      -0.85340000       3.02120000
H        0.44610000      -3.70110000       1.79000000
