15
Properties=species:S:1:pos:R:3 gdb_26878=T pbc="F F F"
C        0.06040000       1.53260000       0.01900000
C       -0.06980000       0.05580000       0.13720000
C       -1.17920000      -0.68450000      -0.08720000
O       -2.35350000      -0.11060000      -0.46590000
N       -1.18660000      -2.05020000       0.05290000
C       -0.09390000      -2.63160000       0.41040000
C        1.15940000      -1.92620000       0.67740000
N        2.28260000      -2.40670000       1.03280000
O        1.08630000      -0.56410000       0.51560000
H        0.82700000       1.79500000      -0.71890000
H       -0.89160000       1.96840000      -0.28480000
H        0.36710000       1.97110000       0.97540000
H       -2.98470000      -0.83440000      -0.56180000
H       -0.09170000      -3.71390000       0.52350000
H        2.21450000      -3.41930000       1.11980000
