20
Properties=species:S:1:pos:R:3 gdb_29779=T pbc="F F F"
C       -0.01090000       1.43640000       0.03010000
N        0.10170000      -0.00230000       0.00830000
C        0.05680000      -0.77000000      -1.14490000
C        0.01860000      -2.09470000      -0.77710000
N        0.03640000      -3.24950000      -1.58160000
C        0.04010000      -2.13290000       0.64850000
N       -0.02500000      -3.35510000       1.37610000
C        0.09210000      -0.82820000       1.11010000
C        0.11650000      -0.31300000       2.51010000
H        0.64140000       1.86580000       0.79630000
H        0.30090000       1.83350000      -0.93860000
H       -1.03800000       1.77360000       0.22590000
H        0.05560000      -0.30240000      -2.11640000
H       -0.46020000      -3.12420000      -2.45500000
H       -0.37920000      -4.02180000      -1.07040000
H        0.88790000      -3.79020000       1.47680000
H       -0.40320000      -3.22220000       2.30660000
H        0.95570000       0.37090000       2.68950000
H       -0.80060000       0.22130000       2.79300000
H        0.23290000      -1.14940000       3.20540000
