22
Properties=species:S:1:pos:R:3 gdb_121447=T pbc="F F F"
C       -0.23850000       1.65940000       0.71520000
C       -0.03150000       0.16690000       0.44910000
C        0.77110000      -0.52630000       1.55960000
N        0.85270000      -1.95520000       1.32580000
C        1.92120000      -2.52300000       0.96480000
C        3.30470000      -1.95590000       0.67070000
O        4.34880000      -2.83430000       1.02510000
O        1.94620000      -3.86020000       0.72720000
C        0.72790000      -4.57310000       0.93500000
H        0.71780000       2.18870000       0.79260000
H       -0.81270000       2.12870000      -0.08920000
H       -0.78300000       1.82390000       1.65170000
H       -0.99780000      -0.34070000       0.35150000
H        0.48920000       0.02410000      -0.50630000
H        1.75020000      -0.03300000       1.65880000
H        0.24840000      -0.37750000       2.51350000
H        3.33650000      -1.69850000      -0.40250000
H        3.45770000      -1.02950000       1.22790000
H        4.05090000      -3.71970000       0.78730000
H        0.94900000      -5.61400000       0.69440000
H        0.39700000      -4.47980000       1.97290000
H       -0.06190000      -4.18600000       0.28580000
