17
Properties=species:S:1:pos:R:3 gdb_126090=T pbc="F F F"
C        0.10590000       1.56830000      -0.08650000
C       -0.04190000       0.05740000       0.08210000
O        0.51190000      -0.61470000      -1.06570000
C        1.46470000      -1.64100000      -0.71380000
C        1.60110000      -1.51800000       0.77000000
C        0.73560000      -0.55250000       1.20520000
N        0.86440000      -0.46990000       2.54540000
N        1.78830000      -1.34510000       3.01700000
C        2.23810000      -1.98670000       1.93620000
H        1.16200000       1.84680000      -0.13270000
H       -0.38230000       1.88710000      -1.01110000
H       -0.36390000       2.09820000       0.74960000
H       -1.11340000      -0.19270000       0.15130000
H        1.07790000      -2.61890000      -1.03540000
H        2.39530000      -1.45450000      -1.26580000
H        0.39160000       0.13030000       3.19910000
H        2.99440000      -2.74850000       2.05460000
