16
Properties=species:S:1:pos:R:3 gdb_54053=T pbc="F F F"
C       -0.01840000       1.53410000       0.03680000
C       -0.00080000       0.01760000       0.05970000
O        0.02510000      -0.60890000       1.09560000
N       -0.01010000      -0.65450000      -1.17100000
C       -0.00130000      -2.11820000      -1.14130000
C       -1.34920000      -2.68770000      -1.25840000
N       -2.40620000      -3.14550000      -1.33870000
C       -0.03090000      -0.03250000      -2.41530000
N       -0.02840000      -0.71550000      -3.48530000
H        0.85510000       1.94310000      -0.47960000
H       -0.91620000       1.92000000      -0.45540000
H       -0.00870000       1.86870000       1.07330000
H        0.60610000      -2.47620000      -1.97460000
H        0.43250000      -2.42450000      -0.18870000
H       -0.04610000       1.05560000      -2.35690000
H       -0.04100000      -0.10850000      -4.30170000
