24
Properties=species:S:1:pos:R:3 gdb_104978=T pbc="F F F"
C       -0.41090000       1.48420000      -0.16020000
C       -0.00810000       0.00310000      -0.01990000
C        0.95620000      -0.12240000       1.18080000
C       -1.28840000      -0.81090000       0.26390000
C        0.68090000      -0.54550000      -1.28990000
C        0.86960000      -2.06980000      -1.35650000
O        1.73610000      -2.44620000      -2.40130000
C        0.59540000       0.15540000      -2.59790000
N        1.86610000       0.14340000      -1.84140000
H        0.43220000       2.12650000      -0.43880000
H       -1.20400000       1.62270000      -0.90030000
H       -0.78800000       1.85370000       0.79860000
H        0.47470000       0.24370000       2.09360000
H        1.25890000      -1.15750000       1.35970000
H        1.86580000       0.46720000       1.02500000
H       -1.96970000      -0.78840000      -0.59320000
H       -1.06810000      -1.85660000       0.49500000
H       -1.81930000      -0.39070000       1.12460000
H        1.24130000      -2.43770000      -0.38630000
H       -0.09340000      -2.55740000      -1.54210000
H        2.42540000      -1.76310000      -2.40910000
H        0.61950000      -0.43290000      -3.50970000
H        0.05260000       1.09100000      -2.66580000
H        2.01980000       1.03700000      -1.38330000
