15
Properties=species:S:1:pos:R:3 gdb_27939=T pbc="F F F"
N        0.02160000       1.38690000       0.02820000
C       -0.09700000       0.00480000      -0.00220000
C       -1.14930000      -0.83250000       0.04770000
C       -0.64500000      -2.18570000      -0.01660000
C       -1.40030000      -3.41290000       0.01970000
O       -2.61030000      -3.49460000       0.10570000
C        0.72980000      -2.05350000      -0.11100000
N        1.74390000      -2.95810000      -0.27400000
O        1.09310000      -0.76480000      -0.10210000
H        0.51450000       1.72680000       0.84790000
H        0.47690000       1.76310000      -0.79720000
H       -2.18590000      -0.54880000       0.12460000
H       -0.78020000      -4.34180000      -0.03650000
H        1.53180000      -3.90600000      -0.00380000
H        2.65150000      -2.64070000       0.03390000
