23
Properties=species:S:1:pos:R:3 gdb_103929=T pbc="F F F"
C       -0.07510000       1.56650000      -0.05580000
C        0.10250000       0.04370000      -0.08330000
C        0.69190000      -0.53160000       1.20570000
O        1.99730000      -0.01700000       1.44460000
C       -0.18460000      -0.50400000       2.51370000
C        0.00690000      -2.02460000       2.65360000
C        0.25620000      -2.73540000       3.95200000
C       -0.56660000      -2.69430000       1.43700000
C        0.79380000      -2.05370000       1.34030000
H        0.88560000       2.08450000       0.04460000
H       -0.53290000       1.92500000      -0.98230000
H       -0.71800000       1.88220000       0.77380000
H       -0.86660000      -0.42890000      -0.27700000
H        0.76340000      -0.23690000      -0.91250000
H        1.92080000       0.93380000       1.57680000
H        0.32250000       0.06420000       3.29750000
H       -1.22020000      -0.15560000       2.42580000
H       -0.64340000      -2.74630000       4.58010000
H        0.55130000      -3.77640000       3.78230000
H        1.05480000      -2.25000000       4.52460000
H       -0.55230000      -3.78020000       1.45580000
H       -1.42740000      -2.27930000       0.91710000
H        1.68540000      -2.61300000       1.08120000
