16
Properties=species:S:1:pos:R:3 gdb_125060=T pbc="F F F"
C       -1.06140000       1.01500000      -0.45770000
C       -0.17520000      -0.15550000      -0.18980000
C        0.68040000      -0.90080000      -0.97910000
N        1.27230000      -1.86050000      -0.20690000
N        0.83210000      -1.76660000       1.01160000
N       -0.04210000      -0.74100000       1.02750000
C        1.01530000      -0.79200000      -2.41310000
C        0.00020000      -0.75110000      -3.48060000
O        0.68990000       0.43480000      -3.08140000
H       -0.89930000       1.81440000       0.27350000
H       -0.84110000       1.40930000      -1.45000000
H       -2.12190000       0.74000000      -0.41710000
H       -0.48600000      -0.48780000       1.89650000
H        1.99200000      -1.20310000      -2.66360000
H        0.24750000      -1.12240000      -4.47390000
H       -1.05420000      -0.79240000      -3.21250000
