17
Properties=species:S:1:pos:R:3 gdb_114584=T pbc="F F F"
C       -0.48330000       1.03950000      -0.08780000
O        0.62370000       0.16840000       0.07290000
C        0.94850000      -0.53710000      -1.08340000
C        2.11350000      -1.53220000      -0.91420000
N        1.27690000      -2.70390000      -1.36570000
C        0.17740000      -2.79910000      -0.40410000
C        0.07250000      -1.75680000      -1.45720000
C       -0.87840000      -1.79530000      -2.52340000
N       -1.65950000      -1.77400000      -3.37750000
H       -0.29740000       1.77870000      -0.88040000
H       -1.40150000       0.48780000      -0.33290000
H       -0.62310000       1.55900000       0.86190000
H        1.07430000       0.13540000      -1.94250000
H        2.94100000      -1.37130000      -1.60530000
H        2.49050000      -1.63110000       0.10690000
H       -0.43030000      -3.68800000      -0.53500000
H        0.33020000      -2.47560000       0.62270000
