18
Properties=species:S:1:pos:R:3 gdb_83316=T pbc="F F F"
O        0.01740000       1.40000000      -0.05390000
C       -0.02500000       0.00700000      -0.06120000
C       -1.37190000      -0.65810000       0.06110000
C       -2.61940000       0.18190000      -0.19650000
C       -2.44000000       0.79830000      -1.60490000
N       -1.33290000       0.04400000      -2.20550000
C       -1.03830000       0.11550000      -3.52640000
O       -1.64720000       0.78800000      -4.33490000
C       -0.61450000      -0.74390000      -1.24330000
H        0.63330000       1.68910000      -0.73600000
H        0.79950000      -0.48510000       0.45610000
H       -1.45940000      -1.51660000       0.71650000
H       -3.49510000      -0.47300000      -0.16950000
H       -2.76210000       0.95880000       0.55830000
H       -3.32670000       0.70820000      -2.23750000
H       -2.17750000       1.85710000      -1.54230000
H       -0.17560000      -0.52690000      -3.79710000
H       -0.14980000      -1.64820000      -1.61940000
