16
Properties=species:S:1:pos:R:3 gdb_71185=T pbc="F F F"
O       -0.09640000       1.43190000       0.03120000
C       -0.06090000       0.05670000       0.00310000
C        0.47660000      -0.75330000      -1.20910000
C       -0.51540000      -1.83060000      -0.77110000
C       -0.54520000      -1.84420000       0.76320000
C       -1.36150000      -0.83920000      -0.01090000
C        0.41930000      -0.76520000       1.26450000
C        1.83980000      -1.04930000       1.42380000
N        2.97380000      -1.25670000       1.52080000
H        0.78610000       1.77170000      -0.15890000
H        0.15890000      -0.28350000      -2.14350000
H        1.54580000      -0.98710000      -1.23940000
H       -0.85100000      -2.69100000      -1.33360000
H       -0.89770000      -2.70100000       1.32010000
H       -2.41450000      -0.60370000      -0.01120000
H        0.02850000      -0.28900000       2.16730000
