21
Properties=species:S:1:pos:R:3 gdb_94465=T pbc="F F F"
C       -0.22870000       1.47100000      -0.23260000
C        0.14900000       0.00590000      -0.12990000
O        1.41300000      -0.27780000      -0.77560000
C        1.99090000      -0.76360000       0.44930000
C        0.66450000      -0.57140000       1.22030000
C        0.69880000       0.28230000       2.51040000
C        0.14860000      -0.66630000       3.60070000
O        0.27100000      -1.97850000       3.07100000
C       -0.03450000      -1.85640000       1.69540000
H        0.54140000       2.11350000       0.20410000
H       -0.34430000       1.74590000      -1.28580000
H       -1.18030000       1.66710000       0.27420000
H       -0.64980000      -0.61020000      -0.57060000
H        2.34910000      -1.79750000       0.36060000
H        2.82170000      -0.12910000       0.78640000
H        1.72260000       0.59230000       2.73710000
H        0.09630000       1.19020000       2.42730000
H        0.70300000      -0.62850000       4.54140000
H       -0.90870000      -0.43900000       3.81400000
H       -1.12550000      -1.76280000       1.54340000
H        0.30660000      -2.76060000       1.18430000
