21
Properties=species:S:1:pos:R:3 gdb_116063=T pbc="F F F"
C       -0.04900000       1.56440000       0.02580000
C        0.00850000       0.03550000      -0.01910000
C        0.71430000      -0.50390000      -1.25970000
C        0.85540000      -2.04230000      -1.24320000
C        1.41030000      -2.55230000      -2.56410000
O        2.32320000      -3.34110000      -2.63700000
C        0.72730000      -1.95250000      -3.78320000
C        0.59570000      -0.42640000      -3.61740000
O       -0.03330000      -0.09200000      -2.39700000
H        0.95740000       1.99700000       0.05060000
H       -0.56160000       1.95630000      -0.85590000
H       -0.58200000       1.91040000       0.91630000
H        0.52840000      -0.35170000       0.86530000
H       -1.00630000      -0.38080000       0.00250000
H        1.72590000      -0.06270000      -1.32030000
H        1.50160000      -2.37840000      -0.42860000
H       -0.14440000      -2.47310000      -1.09760000
H        1.28820000      -2.21630000      -4.68320000
H       -0.28050000      -2.38020000      -3.85950000
H        1.59300000       0.04010000      -3.67470000
H       -0.02030000      -0.00130000      -4.41430000
