21
Properties=species:S:1:pos:R:3 gdb_72499=T pbc="F F F"
O       -0.03430000       1.38430000      -0.06640000
C        0.01660000      -0.02800000       0.01720000
C        0.65620000      -0.58510000       1.31440000
C       -0.05350000      -1.94900000       1.55660000
C       -1.05420000      -2.08350000       0.37760000
C       -1.39800000      -0.61590000       0.06630000
C       -0.35730000      -2.68560000      -0.85240000
O        0.86680000      -2.02100000      -1.13790000
C        0.72410000      -0.61280000      -1.22320000
H        0.86790000       1.72020000      -0.02850000
H        1.74100000      -0.69270000       1.22080000
H        0.45680000       0.12200000       2.12510000
H        0.65140000      -2.78410000       1.58560000
H       -0.59100000      -1.94250000       2.50910000
H       -1.92910000      -2.69080000       0.62770000
H       -1.97420000      -0.14890000       0.87210000
H       -1.94530000      -0.48010000      -0.87180000
H       -0.08930000      -3.73330000      -0.68280000
H       -1.03220000      -2.64180000      -1.72420000
H        0.16360000      -0.32010000      -2.12610000
H        1.74130000      -0.21150000      -1.30880000
