20
Properties=species:S:1:pos:R:3 gdb_89731=T pbc="F F F"
C       -0.09210000       1.52890000      -0.03250000
C        0.00520000       0.00830000       0.00150000
O       -1.26640000      -0.59880000      -0.12710000
C        1.14670000      -0.56840000      -0.89160000
O        1.54150000       0.27040000      -1.95130000
C        2.05240000      -0.69390000       0.37300000
C        0.77870000      -0.55310000       1.20820000
C        0.52230000      -0.32690000       2.64300000
N        0.26380000      -1.64530000       2.02640000
H        0.88140000       1.99660000       0.13100000
H       -0.45170000       1.86920000      -1.01010000
H       -0.78200000       1.87500000       0.74300000
H       -1.78410000      -0.09770000      -0.76540000
H        0.84040000      -1.56140000      -1.24610000
H        2.25510000      -0.16100000      -2.43130000
H        2.61140000      -1.62240000       0.50180000
H        2.72460000       0.16430000       0.46820000
H        1.34780000      -0.30660000       3.35000000
H       -0.32630000       0.29520000       2.91970000
H       -0.73200000      -1.74450000       1.83450000
