19
Properties=species:S:1:pos:R:3 gdb_75949=T pbc="F F F"
C       -0.13010000       1.49690000       0.01170000
N       -0.01950000       0.04420000       0.02800000
C        0.05690000      -0.60130000      -1.21030000
O        0.04650000       0.00610000      -2.26870000
N        0.18500000      -1.96370000      -1.16390000
C       -0.05720000      -2.82420000      -0.01620000
C        0.04930000      -2.01810000       1.24010000
C        0.05600000      -0.68040000       1.23240000
C        0.15520000       0.12070000       2.50130000
H        0.72880000       1.97450000       0.49440000
H       -0.16080000       1.79920000      -1.03310000
H       -1.04490000       1.83410000       0.51060000
H        0.17100000      -2.37390000      -2.08410000
H       -1.04510000      -3.31520000      -0.08860000
H        0.68420000      -3.63610000      -0.01670000
H        0.11170000      -2.54890000       2.18090000
H        0.20440000      -0.55250000       3.35840000
H        1.04950000       0.75340000       2.51320000
H       -0.70800000       0.78090000       2.63730000
