14
Properties=species:S:1:pos:R:3 gdb_24502=T pbc="F F F"
N       -0.02240000       1.36280000       0.00990000
C        1.28770000       1.76770000      -0.00060000
N        2.14700000       0.78220000      -0.01440000
C        1.36370000      -0.36070000      -0.01290000
C       -0.00620000      -0.01940000       0.00230000
C       -0.98830000      -1.00620000       0.00660000
N       -0.65170000      -2.29150000      -0.00370000
C        0.65670000      -2.62090000      -0.01830000
C        1.70660000      -1.71360000      -0.02360000
H       -0.83190000       1.95990000       0.02120000
H        1.54670000       2.81760000       0.00250000
H       -2.04980000      -0.76730000       0.01830000
H        0.86530000      -3.68720000      -0.02610000
H        2.74060000      -2.03690000      -0.03550000
