22
Properties=species:S:1:pos:R:3 gdb_81040=T pbc="F F F"
C       -0.11640000       1.50550000      -0.12210000
C        0.03720000       0.00040000       0.02440000
N        1.15310000      -0.55410000      -0.84610000
C        2.05600000      -0.44660000       0.36070000
C        0.80050000      -0.56870000       1.25540000
C        0.71810000       0.05470000       2.62860000
O        0.42150000      -1.94470000       1.38630000
C        0.79990000      -2.76830000       0.28380000
C        0.86340000      -1.98470000      -1.05650000
H        0.82090000       2.04020000       0.05760000
H       -0.44410000       1.74750000      -1.13770000
H       -0.86480000       1.88770000       0.58020000
H       -0.92490000      -0.49410000      -0.14770000
H        2.83730000      -1.20580000       0.44440000
H        2.51940000       0.54150000       0.39990000
H        0.93610000       1.12550000       2.58560000
H       -0.28390000      -0.08170000       3.04740000
H        1.43360000      -0.41990000       3.30730000
H        1.77820000      -3.22440000       0.49220000
H        0.07160000      -3.58370000       0.23450000
H       -0.08350000      -2.05200000      -1.60210000
H        1.63940000      -2.42340000      -1.69490000
