17
Properties=species:S:1:pos:R:3 gdb_57746=T pbc="F F F"
C       -0.00880000       1.57030000       0.02060000
C       -0.01110000       0.02740000       0.03790000
C        0.78760000      -0.53020000       1.23550000
C       -1.37080000      -0.49880000       0.02780000
C       -2.50190000      -0.93610000       0.02610000
C       -3.76490000      -1.42440000       0.02850000
C       -4.89700000      -1.86670000       0.03170000
C       -6.24940000      -2.35090000       0.02700000
O       -6.56860000      -3.49970000       0.23930000
H        1.02000000       1.93990000      -0.02290000
H       -0.55340000       1.95650000      -0.84450000
H       -0.47910000       1.96650000       0.92530000
H        0.47550000      -0.32270000      -0.88380000
H        0.34260000      -0.20490000       2.18030000
H        0.80520000      -1.62260000       1.22430000
H        1.81800000      -0.16460000       1.19600000
H       -7.00660000      -1.57090000      -0.19230000
