18
Properties=species:S:1:pos:R:3 gdb_112373=T pbc="F F F"
C       -0.22340000       1.56260000      -0.11360000
C        0.16370000       0.08270000      -0.05490000
N        0.81390000      -0.39180000      -1.26000000
C        0.14440000      -0.59920000      -2.52980000
C        1.23570000      -1.19860000      -3.40950000
N        1.06540000      -1.50810000      -4.62780000
N        2.34280000      -1.29660000      -2.58650000
C        2.11300000      -0.83020000      -1.28040000
O        2.91920000      -0.82940000      -0.37840000
H        0.66120000       2.18830000      -0.26290000
H       -0.92790000       1.76510000      -0.92680000
H       -0.70350000       1.86240000       0.82290000
H        0.87220000      -0.09480000       0.75800000
H       -0.72670000      -0.53170000       0.13910000
H       -0.70220000      -1.29290000      -2.44340000
H       -0.23020000       0.33130000      -2.97140000
H        1.91350000      -1.89560000      -5.04340000
H        3.24240000      -1.65980000      -2.85380000
