18
Properties=species:S:1:pos:R:3 gdb_34665=T pbc="F F F"
N       -0.05810000      -1.09670000      -0.58310000
C       -0.05260000       0.03010000      -0.31290000
C        0.00000000       1.42240000       0.02600000
C       -1.14940000       2.11610000      -0.00960000
C       -1.35800000       3.58780000       0.25610000
O       -0.66660000       4.14540000       1.34750000
C        0.73100000       4.29950000       1.18140000
C        1.50640000       3.00740000       1.43000000
C        1.39350000       1.95630000       0.31990000
H       -2.04670000       1.57700000      -0.30320000
H       -1.12960000       4.14660000      -0.67160000
H       -2.41870000       3.75360000       0.46790000
H        0.95620000       4.70170000       0.17870000
H        1.03100000       5.05450000       1.91510000
H        2.56740000       3.25950000       1.54880000
H        1.16740000       2.58470000       2.38220000
H        2.04040000       1.10950000       0.56670000
H        1.79730000       2.37230000      -0.61500000
