21
Properties=species:S:1:pos:R:3 gdb_89038=T pbc="F F F"
C       -0.12280000       1.61730000       0.56570000
N        0.03200000       0.19090000       0.30470000
C        1.31830000      -0.28460000      -0.18210000
C        0.84040000      -0.64910000       1.18420000
C        1.58840000      -0.14210000       2.40300000
N        0.73540000       0.06310000       3.56380000
C        0.54590000       1.29240000       4.12980000
C       -0.41620000       1.31950000       5.30760000
O        1.09650000       2.30120000       3.72270000
H        0.74720000       2.10680000       1.02360000
H       -0.34120000       2.11520000      -0.38440000
H       -0.97860000       1.76900000       1.23050000
H        1.29260000      -1.00350000      -0.99740000
H        2.14080000       0.42980000      -0.23380000
H        0.41080000      -1.64260000       1.32370000
H        2.37460000      -0.86880000       2.64870000
H        2.07690000       0.81510000       2.21810000
H        0.23050000      -0.72490000       3.93470000
H       -0.69340000       0.32710000       5.67280000
H        0.04200000       1.88780000       6.11990000
H       -1.32520000       1.85020000       5.00880000
