16
Properties=species:S:1:pos:R:3 gdb_24232=T pbc="F F F"
C       -0.06740000       1.54010000      -0.00650000
C        1.44030000       1.88290000      -0.03280000
N        2.19110000       1.43820000       1.15730000
C        2.26490000       0.63270000      -0.09700000
C        1.27030000      -0.46660000      -0.09960000
C        0.00550000       0.04270000      -0.02770000
N       -0.82060000      -1.04660000       0.07360000
C       -0.00190000      -2.15370000       0.02840000
N        1.27290000      -1.83670000      -0.06900000
H       -0.54400000       1.94490000       0.89370000
H       -0.58400000       1.96590000      -0.87660000
H        1.75160000       2.79300000      -0.53430000
H        3.03350000       2.00630000       1.23550000
H        3.20260000       0.57990000      -0.63830000
H       -1.82470000      -1.05720000       0.13670000
H       -0.40360000      -3.15560000       0.06020000
