20
Properties=species:S:1:pos:R:3 gdb_54249=T pbc="F F F"
C        0.05500000       1.56080000      -0.44720000
C       -0.00940000       0.07180000      -0.08020000
C        0.73960000      -0.82990000      -1.12340000
C        1.50580000      -1.90150000      -0.30790000
C        1.54380000      -1.30820000       1.08080000
C        0.73420000      -0.25560000       1.20020000
C       -1.50210000      -0.35070000      -0.04820000
N       -1.81710000      -1.34110000       0.83160000
O       -2.32520000       0.13820000      -0.79950000
H        1.09590000       1.87710000      -0.56310000
H       -0.48620000       1.74050000      -1.37810000
H       -0.40760000       2.18040000       0.32800000
H        0.05930000      -1.25540000      -1.86440000
H        1.45330000      -0.20210000      -1.66560000
H        0.98590000      -2.86930000      -0.30480000
H        2.50630000      -2.09560000      -0.71020000
H        2.15410000      -1.71890000       1.87860000
H        0.58750000       0.32380000       2.10650000
H       -1.13910000      -1.70500000       1.47800000
H       -2.77030000      -1.66240000       0.86630000
