15
Properties=species:S:1:pos:R:3 gdb_30299=T pbc="F F F"
O        0.10040000       1.44150000       0.13490000
C        0.11930000       0.02340000       0.03410000
C       -1.33340000      -0.62030000      -0.06770000
N       -1.44400000      -1.39110000      -1.35630000
C       -0.20160000      -1.20060000      -1.92310000
C        0.72600000      -0.52490000      -1.21560000
N        1.93460000      -0.56750000      -1.90230000
C        1.65510000      -1.24670000      -2.96470000
O        0.33950000      -1.69070000      -3.05490000
H        0.02780000       1.79300000      -0.75940000
H        0.60240000      -0.31210000       0.95620000
H       -1.51350000      -1.30690000       0.76300000
H       -2.07640000       0.17990000      -0.02470000
H       -2.23890000      -1.14020000      -1.93320000
H        2.29090000      -1.50740000      -3.79470000
