17
Properties=species:S:1:pos:R:3 gdb_107838=T pbc="F F F"
O       -0.01380000       1.35980000      -0.27430000
C        0.02720000      -0.00980000       0.07900000
C       -1.37030000      -0.56700000       0.19560000
C       -2.31020000      -0.00780000       1.25740000
O       -3.48600000      -0.82310000       1.14730000
C       -3.13250000      -1.96850000       0.41310000
C       -2.53960000      -1.76190000      -0.97060000
O       -2.08930000      -0.41280000      -1.08730000
C       -1.65130000      -2.09050000       0.20580000
H       -0.52660000       1.41330000      -1.09010000
H        0.59150000      -0.60420000      -0.65490000
H        0.54690000      -0.07820000       1.04100000
H       -1.87820000      -0.08800000       2.26660000
H       -2.57640000       1.03220000       1.05640000
H       -3.75830000      -2.83040000       0.61070000
H       -2.79780000      -2.29980000      -1.87570000
H       -0.98140000      -2.90290000       0.45270000
