17
Properties=species:S:1:pos:R:3 gdb_3490=T pbc="F F F"
C       -0.02500000       1.58960000       0.01080000
C        1.48140000       1.83310000      -0.00380000
C        2.12050000       0.67600000       0.74340000
C        0.98560000      -0.24040000       1.19200000
C        0.03580000       0.04250000       0.00250000
C        0.96100000      -0.22900000      -1.20860000
C        2.10490000       0.68330000      -0.77490000
H       -0.51440000       1.98670000       0.90670000
H       -0.53340000       1.99570000      -0.87050000
H        1.91680000       2.82360000      -0.00350000
H        3.03690000       0.79560000       1.30610000
H        1.28340000      -1.29290000       1.25160000
H        0.55320000       0.05250000       2.15490000
H       -0.92000000      -0.48050000       0.00980000
H        1.25720000      -1.28080000      -1.28490000
H        0.50890000       0.07350000      -2.15950000
H        3.00950000       0.80810000      -1.35510000
