24
Properties=species:S:1:pos:R:3 gdb_119912=T pbc="F F F"
C        0.40590000       0.90360000      -1.87240000
N        0.39480000      -0.20100000      -0.92720000
C        1.54930000      -0.46340000      -0.05340000
C        2.83570000       0.33690000      -0.07490000
C        3.80900000      -0.16650000      -1.13790000
O        5.00000000       0.59810000      -1.02840000
C        0.25420000       0.03420000       0.51730000
C        0.13690000       1.43900000       1.08350000
C       -0.66040000      -0.96330000       1.20670000
H        0.95500000       1.80360000      -1.56170000
H        0.84270000       0.55550000      -2.81490000
H       -0.62810000       1.20030000      -2.07780000
H        1.73740000      -1.53400000       0.05840000
H        2.66570000       1.40290000      -0.24320000
H        3.32620000       0.25280000       0.90300000
H        4.00560000      -1.23960000      -0.98000000
H        3.35730000      -0.06320000      -2.13720000
H        5.61680000       0.29240000      -1.69970000
H        0.81080000       2.15890000       0.61820000
H       -0.88710000       1.81240000       0.96420000
H        0.35540000       1.42920000       2.15690000
H       -0.41220000      -1.05550000       2.27050000
H       -1.70740000      -0.64580000       1.13430000
H       -0.57490000      -1.94750000       0.74030000
