17
Properties=species:S:1:pos:R:3 gdb_54335=T pbc="F F F"
O        0.39100000       0.62860000       0.56860000
C       -0.13650000       1.52990000      -0.02300000
O        0.50700000       2.34300000      -0.89550000
C       -1.56950000       1.96420000       0.02390000
C       -2.64140000       0.89280000      -0.07480000
C       -2.43280000       1.64720000       1.20830000
N       -1.66330000       3.20940000      -0.70290000
C       -0.45330000       3.29220000      -1.50160000
N        0.05480000       4.61420000      -1.55960000
H        0.77430000       4.69910000      -2.26770000
H        0.46120000       4.88010000      -0.66710000
H       -3.50460000       1.14550000      -0.67890000
H       -2.30790000      -0.13740000      -0.12150000
H       -1.94850000       1.13430000       2.03170000
H       -3.17280000       2.38940000       1.48780000
H       -1.69560000       4.00610000      -0.07370000
H       -0.62070000       2.92300000      -2.51930000
