23
Properties=species:S:1:pos:R:3 gdb_122356=T pbc="F F F"
C       -0.61280000       0.82300000       1.13560000
O       -0.74770000      -0.51410000       0.70900000
C       -1.33660000      -0.64200000      -0.57810000
C       -1.49890000      -2.12210000      -0.91550000
C       -2.52950000      -2.82400000      -0.05130000
C       -2.44080000      -4.30410000       0.29900000
C       -1.31790000      -5.19600000      -0.18550000
C       -2.19100000      -3.25850000       1.35890000
O       -0.88470000      -3.10280000       1.81820000
H       -0.14950000       0.80740000       2.12460000
H        0.02620000       1.40040000       0.45060000
H       -1.58930000       1.32540000       1.20510000
H       -2.31390000      -0.13110000      -0.59040000
H       -0.69590000      -0.14510000      -1.32440000
H       -1.78960000      -2.19390000      -1.97110000
H       -0.52030000      -2.60090000      -0.82740000
H       -3.53880000      -2.44130000      -0.19220000
H       -3.40440000      -4.80310000       0.36550000
H       -0.34340000      -4.74280000       0.00470000
H       -1.33880000      -6.15170000       0.34890000
H       -1.40350000      -5.41310000      -1.25610000
H       -2.95690000      -3.12290000       2.12370000
H       -0.65760000      -2.16990000       1.68320000
