13
Properties=species:S:1:pos:R:3 gdb_20508=T pbc="F F F"
C       -0.01990000       1.46790000       0.01050000
C       -0.00270000       0.01440000       0.00280000
C        0.02590000      -1.19030000      -0.00380000
C        0.02070000      -2.60710000      -0.01110000
N        1.14910000      -3.29860000      -0.02200000
O        0.76900000      -4.62990000      -0.02650000
C       -0.57050000      -4.71090000      -0.01840000
C       -1.11870000      -3.47330000      -0.00840000
H        0.99810000       1.87130000       0.00300000
H       -0.54390000       1.86140000      -0.86750000
H       -0.52710000       1.85210000       0.90230000
H       -0.98090000      -5.70860000      -0.02100000
H       -2.15820000      -3.19490000      -0.00020000
