18
Properties=species:S:1:pos:R:3 gdb_84733=T pbc="F F F"
C        0.15910000       1.46830000      -0.00970000
N        0.00390000       0.01370000       0.02770000
C       -0.03550000      -0.63360000      -1.20590000
C       -0.71590000      -1.74820000      -1.54970000
C       -1.53330000      -2.54630000      -0.66410000
C       -1.27510000      -2.68530000       0.64580000
C       -0.02890000      -2.11450000       1.26570000
C       -0.07390000      -0.59070000       1.28240000
O       -0.14600000       0.06000000       2.30490000
H        0.97990000       1.73770000      -0.68250000
H       -0.75770000       1.95110000      -0.36420000
H        0.37440000       1.81300000       0.99980000
H        0.50730000      -0.09310000      -1.97710000
H       -0.66990000      -2.02940000      -2.59760000
H       -2.38990000      -3.05320000      -1.10140000
H       -1.96150000      -3.22770000       1.28800000
H        0.09450000      -2.43380000       2.30010000
H        0.84880000      -2.42990000       0.68570000
