23
Properties=species:S:1:pos:R:3 gdb_60225=T pbc="F F F"
C        0.00100000       1.57840000      -0.07620000
C        0.02760000       0.04940000      -0.02830000
O        0.87380000      -0.40960000       1.02630000
C       -1.38270000      -0.55210000       0.04690000
C       -1.44740000      -2.08180000      -0.01650000
C       -0.93300000      -2.84970000       1.23350000
C       -1.80370000      -4.08390000       1.26300000
C       -2.86090000      -3.96790000       0.46150000
C       -2.88290000      -2.63360000      -0.24510000
H        1.02000000       1.97330000      -0.10830000
H       -0.54190000       1.94190000      -0.95460000
H       -0.49540000       1.98610000       0.81370000
H        0.51500000      -0.32420000      -0.93830000
H        0.49680000      -0.09870000       1.85710000
H       -1.87560000      -0.19780000       0.96600000
H       -1.96700000      -0.13650000      -0.78540000
H       -0.83850000      -2.41170000      -0.86860000
H        0.13780000      -3.06240000       1.17920000
H       -1.07570000      -2.26100000       2.15260000
H       -1.59240000      -4.93480000       1.90190000
H       -3.64600000      -4.70700000       0.34400000
H       -3.64170000      -1.97250000       0.20240000
H       -3.13380000      -2.70690000      -1.30990000
