17
Properties=species:S:1:pos:R:3 gdb_2484=T pbc="F F F"
O       -0.05960000       1.39990000      -0.02380000
C       -0.02730000      -0.01830000       0.01690000
C        0.48660000      -0.61540000       1.37320000
C       -0.79960000      -1.33550000       1.82260000
C       -1.23920000      -2.03030000       0.49950000
C       -1.46320000      -0.56160000       0.03850000
C       -1.89340000      -0.27440000       1.50620000
H        0.84510000       1.72060000       0.04090000
H        0.53600000      -0.40980000      -0.84240000
H        1.33130000      -1.29970000       1.24600000
H        0.78530000       0.18510000       2.05720000
H       -0.77020000      -1.86890000       2.77350000
H       -0.50210000      -2.63810000      -0.03600000
H       -2.17730000      -2.58100000       0.59890000
H       -2.08950000      -0.30460000      -0.81550000
H       -2.90150000      -0.63590000       1.72100000
H       -1.75870000       0.74150000       1.88330000
