15
Properties=species:S:1:pos:R:3 gdb_30904=T pbc="F F F"
N        1.09470000       0.37160000       0.24390000
H        1.22120000       1.24160000       0.75660000
H        1.83210000       0.34540000      -0.45530000
H        1.30450000      -0.37660000       0.89940000
C       -1.78150000       2.03970000       0.00850000
C       -1.35510000       3.07460000       0.72530000
C       -2.03920000       4.30860000       1.11470000
O       -3.28750000       4.55140000       0.75610000
N       -1.30050000       5.09460000       1.82180000
C       -0.06430000       4.43730000       1.95500000
O        0.91580000       4.79270000       2.52700000
O       -0.10620000       3.19870000       1.27930000
H       -2.79170000       2.05230000      -0.37970000
H       -1.12650000       1.19480000      -0.18480000
H       -3.53650000       5.41500000       1.11860000
