20
Properties=species:S:1:pos:R:3 gdb_22314=T pbc="F F F"
O       -0.02970000       1.36130000       0.02130000
N        0.06100000      -0.04230000       0.02970000
C       -1.08250000      -0.61200000       0.00250000
C       -2.43160000       0.06130000       0.00520000
C       -3.31800000      -0.51980000       1.12670000
C       -3.37770000      -2.05180000       1.07720000
C       -1.98110000      -2.66670000       1.14180000
O       -2.13210000      -4.07580000       1.05090000
C       -1.09320000      -2.11860000       0.00720000
H        0.89710000       1.61870000       0.05750000
H       -2.31910000       1.14020000       0.10850000
H       -2.91300000      -0.12900000      -0.96460000
H       -2.91910000      -0.19980000       2.09760000
H       -4.32650000      -0.10090000       1.05040000
H       -3.98200000      -2.44510000       1.90090000
H       -3.85520000      -2.38400000       0.14580000
H       -1.52020000      -2.39310000       2.10630000
H       -1.25760000      -4.47420000       1.10830000
H       -1.50990000      -2.48910000      -0.94010000
H       -0.06750000      -2.49110000       0.09180000
