19
Properties=species:S:1:pos:R:3 gdb_1098=T pbc="F F F"
C        0.00130000       1.40490000      -0.02300000
O       -0.00020000      -0.00150000       0.00420000
C        0.63860000      -0.57380000      -1.11520000
C        0.58870000      -2.10210000      -0.99750000
C        1.34300000      -2.57190000       0.25180000
C       -0.86290000      -2.59560000      -0.99320000
O        1.26230000      -2.54070000      -2.18250000
H        1.02490000       1.81200000      -0.02910000
H       -0.52630000       1.79660000      -0.90710000
H       -0.51180000       1.75160000       0.87740000
H        0.14310000      -0.26780000      -2.05080000
H        1.69050000      -0.25100000      -1.17650000
H        0.90500000      -2.13970000       1.15500000
H        1.30410000      -3.66400000       0.33920000
H        2.39290000      -2.27000000       0.19240000
H       -1.35920000      -2.31070000      -1.92570000
H       -0.89990000      -3.68760000      -0.90410000
H       -1.41690000      -2.16410000      -0.15580000
H        1.26720000      -3.50330000      -2.17470000
