16
Properties=species:S:1:pos:R:3 gdb_9714=T pbc="F F F"
O       -0.07730000       1.40360000       0.01930000
C        0.02450000      -0.02540000       0.01920000
C       -1.41910000      -0.59810000      -0.08530000
C       -1.35550000      -1.75110000      -1.11290000
C       -0.06010000      -1.49180000      -1.84170000
C        0.68810000      -0.57460000      -1.23620000
C        0.74310000      -0.47290000       1.21960000
C        1.36520000      -0.81500000       2.19080000
H        0.76590000       1.75870000       0.32080000
H       -1.81400000      -0.89860000       0.88590000
H       -2.03730000       0.21890000      -0.46570000
H       -1.33180000      -2.73300000      -0.62190000
H       -2.22280000      -1.76350000      -1.78240000
H        0.22040000      -2.02790000      -2.74200000
H        1.67460000      -0.24180000      -1.53770000
H        1.90360000      -1.12550000       3.05210000
