20
Properties=species:S:1:pos:R:3 gdb_82069=T pbc="F F F"
C       -0.20900000       1.53220000      -0.06460000
C        0.04370000       0.03630000      -0.01710000
C        0.68640000      -0.70300000      -1.25080000
C        1.75590000      -1.17450000      -0.27440000
C        2.42540000      -0.02660000       0.35840000
N        1.12560000      -0.45790000       0.90970000
C       -0.20590000      -1.77770000      -1.83270000
C       -1.25400000      -1.30760000      -2.82670000
O       -0.09950000      -2.94080000      -1.51410000
H        0.66770000       2.09440000      -0.39870000
H       -1.03160000       1.76050000      -0.75100000
H       -0.48820000       1.89560000       0.92970000
H       -0.87350000      -0.47720000       0.28750000
H        1.03530000      -0.03910000      -2.05070000
H        2.09600000      -2.20000000      -0.19960000
H        3.24430000      -0.23290000       1.04050000
H        2.51350000       0.91820000      -0.17270000
H       -0.76390000      -0.95990000      -3.74380000
H       -1.93110000      -2.12750000      -3.06860000
H       -1.82110000      -0.45850000      -2.42930000
