17
Properties=species:S:1:pos:R:3 gdb_77112=T pbc="F F F"
O        0.12820000       1.09880000      -0.23460000
C       -0.01930000      -0.28720000      -0.11070000
C       -0.04340000      -0.90030000       1.33120000
O       -1.34220000      -1.49840000       1.06460000
C       -1.45710000      -0.77300000      -0.16260000
C       -2.66750000       0.02350000      -0.51800000
C       -2.30070000      -1.23400000      -1.29760000
C        0.98010000      -1.85970000       1.69080000
C        1.85410000      -2.63760000       1.96730000
H        1.06230000       1.30100000      -0.34630000
H        0.65500000      -0.83800000      -0.77670000
H       -0.12820000      -0.10770000       2.08580000
H       -3.51250000      -0.03900000       0.15890000
H       -2.51560000       0.99090000      -0.98370000
H       -1.91410000      -1.13120000      -2.30670000
H       -2.90480000      -2.11910000      -1.12940000
H        2.61730000      -3.33140000       2.22110000
