23
Properties=species:S:1:pos:R:3 gdb_79891=T pbc="F F F"
C       -0.23890000       1.60390000      -0.05150000
C       -0.00910000       0.10020000       0.00810000
C        1.18600000      -0.59400000      -0.71610000
C        2.13340000      -0.05690000       0.40230000
C        3.46040000      -0.78080000       0.63870000
C        3.22320000      -2.20720000       1.14900000
C        2.04620000      -2.84400000       0.39950000
C        0.92080000      -1.83040000       0.19840000
C        0.84090000      -0.57050000       1.13160000
H        0.66520000       2.19540000       0.11180000
H       -0.64650000       1.88750000      -1.02850000
H       -0.97090000       1.90680000       0.70560000
H       -0.96140000      -0.41730000      -0.16350000
H        1.38970000      -0.61250000      -1.79060000
H        2.27480000       1.02550000       0.40480000
H        4.02900000      -0.79570000      -0.30170000
H        4.07220000      -0.22090000       1.35550000
H        4.12800000      -2.81870000       1.07050000
H        2.97090000      -2.15800000       2.21550000
H        2.36920000      -3.21780000      -0.58200000
H        1.67460000      -3.71550000       0.95090000
H       -0.04260000      -2.31930000       0.01580000
H        0.63410000      -0.55470000       2.20480000
