21
Properties=species:S:1:pos:R:3 gdb_93583=T pbc="F F F"
C       -0.02440000       1.54690000      -0.01780000
C       -0.04510000       0.01910000       0.03380000
O        0.65810000      -0.51150000      -1.09820000
C        1.63150000      -1.45670000      -0.68010000
C        1.61780000      -1.42110000       0.83210000
C        0.65310000      -0.58650000       1.21940000
C        2.52180000      -2.20640000       1.68930000
C        3.01260000      -3.58620000       1.28360000
C        3.97780000      -2.43830000       1.31920000
H        1.00220000       1.91830000       0.05310000
H       -0.45910000       1.89780000      -0.95820000
H       -0.60810000       1.96740000       0.80820000
H       -1.09650000      -0.31590000      -0.01660000
H        1.37950000      -2.45820000      -1.06770000
H        2.61000000      -1.18590000      -1.10580000
H        0.37920000      -0.35680000       2.24210000
H        2.33350000      -2.07820000       2.75080000
H        3.07250000      -4.34200000       2.05870000
H        2.71060000      -3.96880000       0.31530000
H        4.33340000      -2.04000000       0.37590000
H        4.70670000      -2.39570000       2.12080000
