21
Properties=species:S:1:pos:R:3 gdb_121797=T pbc="F F F"
C        0.16330000       1.58680000       0.01510000
C        0.00720000       0.06020000      -0.00240000
O        0.66200000      -0.40250000       1.18550000
C       -1.47940000      -0.38550000      -0.01190000
C       -2.28640000       0.08580000       1.20050000
C       -3.66640000      -0.55690000       1.25770000
O       -4.34400000      -0.03290000       2.38970000
C        0.67220000      -0.50330000      -1.18920000
C        1.20340000      -1.00100000      -2.14640000
H        1.22150000       1.85000000      -0.03850000
H       -0.35670000       2.03750000      -0.83390000
H       -0.24730000       1.99030000       0.94320000
H        0.75430000      -1.35900000       1.11420000
H       -1.94000000      -0.03720000      -0.94420000
H       -1.49020000      -1.48290000      -0.05990000
H       -1.74260000      -0.15290000       2.11980000
H       -2.42100000       1.17260000       1.18190000
H       -4.21900000      -0.34130000       0.32790000
H       -3.56410000      -1.65290000       1.32560000
H       -5.21790000      -0.43180000       2.42860000
H        1.68270000      -1.42880000      -2.99230000
