20
Properties=species:S:1:pos:R:3 gdb_70818=T pbc="F F F"
C        0.01740000       1.46640000      -0.01430000
C       -0.03500000      -0.02920000      -0.10200000
C        0.53600000      -0.95610000      -1.18320000
C        0.02820000      -1.89750000      -0.08450000
C        0.17330000      -3.38590000       0.02870000
N        0.54230000      -0.94040000       1.02620000
C       -0.82100000      -0.96640000       1.71130000
C       -1.21270000      -0.98360000       0.23780000
O       -2.45340000      -0.92870000      -0.37860000
H        1.05340000       1.81720000      -0.05670000
H       -0.53150000       1.91370000      -0.84950000
H       -0.42850000       1.83220000       0.91610000
H        0.00380000      -0.98110000      -2.13710000
H        1.62100000      -0.92070000      -1.32310000
H        1.22890000      -3.67410000      -0.00920000
H       -0.24490000      -3.76390000       0.96780000
H       -0.34370000      -3.88510000      -0.79830000
H       -0.99070000      -1.86480000       2.31370000
H       -1.03630000      -0.06880000       2.29860000
H       -2.96770000      -1.69810000      -0.10940000
