18
Properties=species:S:1:pos:R:3 gdb_46490=T pbc="F F F"
O        0.01180000      -0.06310000       0.11460000
C       -0.00470000       1.14220000      -0.04080000
C       -1.31270000       1.93940000      -0.09690000
N       -1.24050000       3.15390000      -0.91480000
C       -0.11140000       3.98720000      -0.56550000
C       -0.08510000       5.35480000      -1.21250000
C       -0.41960000       5.24820000       0.24430000
C        1.16050000       3.28860000      -0.29470000
C        1.22200000       1.95860000      -0.11630000
H       -2.10950000       1.28870000      -0.46450000
H       -1.57460000       2.22190000       0.93280000
H       -1.14560000       2.88080000      -1.88980000
H        0.87740000       5.76300000      -1.50020000
H       -0.89700000       5.56450000      -1.89960000
H       -1.45590000       5.36810000       0.53520000
H        0.31110000       5.57950000       0.97310000
H        2.06270000       3.89540000      -0.23870000
H        2.16160000       1.44010000       0.04460000
