23
Properties=species:S:1:pos:R:3 gdb_60162=T pbc="F F F"
C       -0.13090000       1.20320000       0.24320000
C        0.12170000      -0.22240000      -0.25310000
C       -1.14310000      -0.87330000      -0.80170000
O        1.08160000      -0.22790000      -1.31600000
C        2.44270000      -0.18450000      -0.90950000
C        2.98200000      -1.59030000      -0.51070000
C        3.36720000      -1.80490000      -2.00680000
O        2.39290000      -2.49610000      -2.75580000
C        3.31670000      -0.25780000      -2.18240000
H        0.78450000       1.66860000       0.61940000
H       -0.52020000       1.82260000      -0.57090000
H       -0.86160000       1.20120000       1.05830000
H        0.50600000      -0.83200000       0.57910000
H       -1.51150000      -0.31280000      -1.66700000
H       -0.94390000      -1.90110000      -1.11800000
H       -1.93040000      -0.89160000      -0.04220000
H        2.61880000       0.64470000      -0.21420000
H        3.85960000      -1.52050000       0.13900000
H        2.27120000      -2.30350000      -0.08580000
H        4.31940000      -2.30100000      -2.20830000
H        1.55950000      -2.02750000      -2.61570000
H        2.86160000       0.11690000      -3.10200000
H        4.29210000       0.21280000      -2.03280000
