15
Properties=species:S:1:pos:R:3 gdb_43443=T pbc="F F F"
N       -0.04490000       1.25410000       0.12400000
C       -0.03930000       0.00280000       0.02520000
C       -1.25810000      -0.89470000      -0.03070000
C       -0.66480000      -2.28930000      -0.00380000
C       -1.21860000      -3.44260000       0.76310000
N       -1.23030000      -3.45390000      -0.69980000
C        0.82700000      -2.12180000      -0.09520000
O        1.68210000      -2.94620000      -0.15710000
O        1.11260000      -0.76480000      -0.05600000
H        0.90530000       1.62810000       0.13480000
H       -1.92910000      -0.67330000       0.80190000
H       -1.80450000      -0.69600000      -0.95920000
H       -0.52880000      -4.14890000       1.21510000
H       -2.14580000      -3.27340000       1.30480000
H       -2.15600000      -3.21170000      -1.04740000
