21
Properties=species:S:1:pos:R:3 gdb_117670=T pbc="F F F"
C        0.02060000       1.73490000      -0.01820000
C        0.02470000       0.20450000      -0.01050000
O        0.75020000      -0.20180000       1.14610000
C       -1.39660000      -0.40010000       0.00490000
C       -2.20910000      -0.07960000       1.25380000
O       -3.42100000      -0.81900000       1.16680000
C        0.74740000      -0.31680000      -1.25350000
C        2.20340000      -0.47230000      -1.29070000
O        1.34410000      -1.61000000      -1.09590000
H        1.04460000       2.11330000      -0.07370000
H       -0.54290000       2.12100000      -0.87330000
H       -0.43320000       2.12340000       0.89660000
H        0.98680000      -1.12790000       0.99320000
H       -1.95100000      -0.06860000      -0.88150000
H       -1.31100000      -1.49120000      -0.06940000
H       -1.62730000      -0.35670000       2.14360000
H       -2.41460000       1.00030000       1.31450000
H       -3.92440000      -0.65970000       1.97030000
H        0.21430000      -0.18320000      -2.19530000
H        2.72550000      -0.45030000      -2.24510000
H        2.78620000      -0.18710000      -0.41870000
