21
Properties=species:S:1:pos:R:3 gdb_95519=T pbc="F F F"
C       -0.06020000       1.58150000       0.03820000
C        0.04230000       0.05140000       0.03200000
O        0.68320000      -0.43650000      -1.14830000
C        2.04300000      -0.06310000      -1.27970000
C        2.82440000      -0.18380000      -0.00190000
C        2.22260000      -0.40550000       1.16580000
C        0.74660000      -0.50700000       1.26490000
C        0.07950000      -0.36470000       2.61540000
C        0.16010000      -1.71870000       1.96910000
H        0.91580000       2.05180000       0.18790000
H       -0.47560000       1.92900000      -0.91220000
H       -0.71790000       1.91760000       0.84490000
H       -0.96950000      -0.36510000      -0.02610000
H        2.45870000      -0.73210000      -2.04340000
H        2.13630000       0.96170000      -1.68290000
H        3.90370000      -0.08230000      -0.07330000
H        2.80070000      -0.51940000       2.08010000
H        0.71110000      -0.16060000       3.47420000
H       -0.88770000       0.12620000       2.65250000
H       -0.74690000      -2.14650000       1.55450000
H        0.84960000      -2.44740000       2.38100000
