16
Properties=species:S:1:pos:R:3 gdb_29807=T pbc="F F F"
C       -0.04190000       1.44150000       0.04720000
N       -0.00560000      -0.00600000       0.01330000
C        0.03790000      -0.76080000      -1.13200000
C        0.10310000      -2.09110000      -0.76470000
O        0.15300000      -3.11920000      -1.65890000
C        0.10280000      -2.15280000       0.64470000
C        0.03590000      -0.84180000       1.11080000
C        0.00760000      -0.36290000       2.43380000
C       -0.01700000       0.04270000       3.57000000
H        0.89970000       1.86910000      -0.31430000
H       -0.86050000       1.81650000      -0.57450000
H       -0.20200000       1.76430000       1.07610000
H        0.01850000      -0.30680000      -2.10860000
H        0.19220000      -3.94610000      -1.17010000
H        0.13880000      -3.03440000       1.26620000
H       -0.03810000       0.39010000       4.57280000
