17
Properties=species:S:1:pos:R:3 gdb_37577=T pbc="F F F"
C       -0.00970000       1.59740000       0.13590000
O        1.39910000       1.90860000      -0.02540000
C        2.12890000       0.82510000      -0.64580000
C        1.03960000      -0.16560000      -0.94010000
C       -0.07630000       0.07720000       0.07760000
C       -0.77030000      -0.79930000      -0.99450000
C        0.03830000      -0.16750000      -2.15750000
O        0.51180000      -1.43710000      -2.69720000
C        0.55850000      -1.62070000      -1.25900000
H       -0.32440000       2.03120000       1.08850000
H       -0.59030000       2.07050000      -0.66930000
H        2.64410000       1.20080000      -1.53650000
H        2.87740000       0.44130000       0.05950000
H        0.06450000      -0.39460000       1.05450000
H       -1.78450000      -1.19570000      -1.04240000
H       -0.22550000       0.62540000      -2.85520000
H        0.88480000      -2.57830000      -0.85420000
