21
Properties=species:S:1:pos:R:3 gdb_108276=T pbc="F F F"
C       -0.17050000       1.61420000      -0.05240000
C       -0.16720000       0.08060000      -0.07150000
C        0.72620000      -0.50050000      -1.15020000
C        0.28520000      -0.35010000      -2.63580000
C        0.50060000      -1.87280000      -2.87190000
C        0.90840000      -2.06060000      -1.37540000
C        2.40910000      -1.87660000      -1.15940000
O        3.33980000      -2.62990000      -1.12510000
C        2.26870000      -0.35590000      -0.95290000
H        0.83290000       2.01080000       0.13600000
H       -0.51330000       2.02210000      -1.00930000
H       -0.83290000       1.99790000       0.72920000
H        0.15430000      -0.29860000       0.90800000
H       -1.19200000      -0.28520000      -0.21850000
H       -0.76060000      -0.04780000      -2.74060000
H        0.89350000       0.32400000      -3.24490000
H       -0.41510000      -2.41000000      -3.12580000
H        1.26710000      -2.15010000      -3.59960000
H        0.40370000      -2.84410000      -0.80750000
H        2.81830000       0.28050000      -1.65290000
H        2.55400000      -0.06950000       0.06620000
