16
Properties=species:S:1:pos:R:3 gdb_129870=T pbc="F F F"
N        0.22720000       1.32960000      -0.24960000
C        0.01260000      -0.04100000      -0.11200000
C       -1.13650000      -0.79830000       0.03350000
C       -0.66510000      -2.11560000       0.21840000
N        0.65810000      -2.19230000       0.18750000
N        1.05960000      -0.90320000      -0.00460000
C        2.47310000      -0.58470000      -0.04670000
C        2.90550000      -0.02540000      -1.32890000
C        3.24250000       0.46820000      -2.37170000
H        0.90230000       1.55700000      -0.97220000
H       -0.63480000       1.83210000      -0.41130000
H       -2.15490000      -0.44690000      -0.00160000
H       -1.24540000      -3.01500000       0.36720000
H        2.71540000       0.12200000       0.75760000
H        2.99450000      -1.52190000       0.16280000
H        3.55690000       0.87660000      -3.30070000
