15
Properties=species:S:1:pos:R:3 gdb_42734=T pbc="F F F"
O        0.00940000       0.04940000       0.03900000
C       -0.03270000       1.24600000       0.04850000
C       -1.21840000       2.22720000      -0.01060000
C       -0.85000000       3.25220000       1.09200000
C        0.26320000       3.53120000       0.05380000
O       -0.69270000       3.16850000      -1.00720000
C        1.10910000       2.26940000       0.10550000
C        2.41690000       2.04020000       0.72290000
O        2.26400000       2.10960000      -0.69760000
H       -2.21780000       1.84570000      -0.20580000
H       -1.57810000       4.06270000       1.13950000
H       -0.57490000       2.89580000       2.08830000
H        0.75370000       4.49270000      -0.08540000
H        2.94910000       2.87400000       1.17910000
H        2.64480000       1.05180000       1.11830000
