21
Properties=species:S:1:pos:R:3 gdb_120223=T pbc="F F F"
C        0.01690000       1.53620000       0.02250000
C       -0.14950000       0.03990000      -0.17620000
O        0.90880000      -0.42580000      -1.00030000
C        0.89660000      -1.80190000      -1.21420000
C        0.05840000      -2.44860000      -2.35890000
C        0.39610000      -1.58280000      -3.58740000
C        1.94490000      -1.54090000      -3.38890000
C        2.00660000      -2.39070000      -2.10490000
O        1.08470000      -3.48660000      -2.40160000
H        0.97870000       1.75490000       0.49490000
H       -0.01930000       2.05820000      -0.93790000
H       -0.78160000       1.92690000       0.66020000
H       -0.12650000      -0.48620000       0.79190000
H       -1.12220000      -0.18300000      -0.64270000
H        0.78690000      -2.37200000      -0.28350000
H       -0.95360000      -2.83320000      -2.23340000
H        0.09650000      -2.07460000      -4.51480000
H       -0.06540000      -0.59370000      -3.54040000
H        2.49260000      -2.01880000      -4.20340000
H        2.32980000      -0.53070000      -3.23630000
H        2.97410000      -2.71150000      -1.72000000
