16
Properties=species:S:1:pos:R:3 gdb_126865=T pbc="F F F"
C        0.36340000       1.39660000      -0.30140000
C       -0.38480000       0.46080000       0.64320000
N        0.55040000      -0.39840000       1.36410000
C        0.64110000      -0.68130000       2.52530000
C        0.81350000      -1.08340000       3.78260000
C        0.12630000      -2.26190000       4.30120000
O       -0.65000000      -2.96670000       3.68820000
N       -2.61350000      -3.74220000       1.14310000
N       -2.18330000      -2.74570000       0.97490000
H        0.97580000       0.82700000      -1.00510000
H       -0.35190000       1.99900000      -0.86850000
H        1.01830000       2.07400000       0.25380000
H       -1.00770000       1.02280000       1.34880000
H       -1.04030000      -0.20880000       0.07840000
H        1.47490000      -0.51970000       4.42990000
H        0.37880000      -2.48110000       5.36140000
