20
Properties=species:S:1:pos:R:3 gdb_115018=T pbc="F F F"
O       -0.08070000       1.44940000      -0.06330000
C        0.01760000       0.03940000       0.08740000
C       -1.39430000      -0.54350000       0.00260000
C       -2.01500000      -0.27060000      -1.39750000
C       -1.93310000      -1.60790000      -2.09390000
C       -1.59210000      -2.58960000      -1.26100000
C       -1.38850000      -2.08080000       0.12330000
C       -0.64210000      -2.81810000       1.17840000
N       -2.11360000      -2.80050000       1.20050000
H        0.80930000       1.81250000      -0.08380000
H        0.64160000      -0.40650000      -0.70360000
H        0.47590000      -0.21710000       1.05380000
H       -1.99060000      -0.08540000       0.79900000
H       -3.05730000       0.06670000      -1.32510000
H       -1.47400000       0.52660000      -1.91660000
H       -2.16340000      -1.73190000      -3.14640000
H       -1.50670000      -3.64210000      -1.50410000
H       -0.19870000      -3.78560000       0.95460000
H       -0.10210000      -2.24580000       1.92870000
H       -2.43540000      -2.13140000       1.89680000
