17
Properties=species:S:1:pos:R:3 gdb_77744=T pbc="F F F"
C       -0.22570000       1.65010000      -0.07870000
C        0.01870000       0.14790000      -0.00780000
C        1.11980000      -0.53960000      -0.84990000
O        1.31530000      -0.58730000      -2.03330000
C        1.73500000      -1.24670000       0.31580000
C        2.06780000      -0.23110000       1.40150000
O        2.62420000       1.02500000       1.14030000
C        0.63360000      -0.50620000       1.23380000
O       -0.19870000      -0.99020000       2.20850000
H        0.68220000       2.20640000       0.15870000
H       -0.55230000       1.92370000      -1.08670000
H       -1.01190000       1.94900000       0.62190000
H       -0.90570000      -0.39950000      -0.23780000
H        2.17720000      -2.23650000       0.31810000
H        2.49660000      -0.72570000       2.28060000
H        3.46960000       0.89210000       0.69670000
H        0.29630000      -1.10580000       3.02670000
