12
Properties=species:S:1:pos:R:3 gdb_123982=T pbc="F F F"
C       -0.01240000       1.52030000      -0.05040000
N        1.36420000       2.00130000       0.11330000
C        2.34380000       1.22270000       0.25510000
O        2.37060000      -0.16040000       0.28950000
C        1.12800000      -0.68340000       0.14370000
C       -0.00890000       0.03190000      -0.01650000
O       -1.01710000      -0.82100000      -0.12520000
N       -0.42420000      -2.14820000      -0.02020000
N        0.81970000      -2.00710000       0.13440000
H       -0.63540000       1.94900000       0.74510000
H       -0.41490000       1.91000000      -0.99430000
H        3.35490000       1.59830000       0.37480000
