15
Properties=species:S:1:pos:R:3 gdb_18222=T pbc="F F F"
O       -0.08480000      -0.01670000       0.02890000
C       -0.00830000       1.19250000       0.04360000
N        1.16030000       1.89990000      -0.02630000
C        2.44480000       1.33180000      -0.06990000
C        3.39620000       2.27290000      -0.00830000
C        2.77370000       3.62730000       0.02380000
C        1.93320000       4.00440000      -1.18710000
C        1.27540000       3.34010000      -0.00670000
H       -0.88700000       1.86180000       0.11360000
H        2.51840000       0.25850000      -0.15160000
H        4.45980000       2.08660000       0.00410000
H        3.20140000       4.41650000       0.63180000
H        1.70760000       5.05630000      -1.32270000
H        2.06730000       3.43620000      -2.10060000
H        0.54260000       3.86920000       0.59010000
