19
Properties=species:S:1:pos:R:3 gdb_28450=T pbc="F F F"
C       -0.02020000       1.52320000       0.01270000
C       -0.00340000       0.01630000       0.00890000
C       -0.08700000      -0.71030000      -1.17730000
N       -0.07520000      -2.04430000      -1.23350000
C        0.02400000      -2.74240000      -0.10400000
C        0.04710000      -4.24460000      -0.21230000
C        0.11160000      -2.10960000       1.15680000
N        0.27330000      -2.86260000       2.32150000
C        0.09380000      -0.71630000       1.19080000
H        0.90310000       1.93370000       0.43730000
H       -0.12460000       1.91720000      -1.00170000
H       -0.85080000       1.91460000       0.61110000
H       -0.16770000      -0.19030000      -2.12960000
H        0.94960000      -4.66770000       0.24590000
H       -0.81530000      -4.70630000       0.28940000
H        0.01750000      -4.52840000      -1.26480000
H       -0.13590000      -3.78490000       2.29490000
H        0.02810000      -2.37660000       3.17240000
H        0.15890000      -0.20260000       2.14780000
