15
Properties=species:S:1:pos:R:3 gdb_81903=T pbc="F F F"
C        0.16440000       1.62620000      -0.03090000
C        0.04640000       0.10060000      -0.01180000
C        0.71110000      -0.60860000      -1.17990000
O        2.13170000      -0.51360000      -1.12470000
C        1.52310000      -1.76730000      -0.74320000
C        1.44740000      -1.84600000       0.75290000
O        1.80910000      -2.73190000       1.47650000
C        0.71950000      -0.53970000       1.21030000
O        0.67580000      -0.14930000       2.34310000
H        1.20830000       1.92360000      -0.16220000
H       -0.42500000       2.05730000      -0.84490000
H       -0.19340000       2.03580000       0.91670000
H       -1.01420000      -0.19020000       0.02850000
H        0.27720000      -0.58030000      -2.17620000
H        1.74890000      -2.63050000      -1.35980000
