16
Properties=species:S:1:pos:R:3 gdb_54232=T pbc="F F F"
C       -0.10270000       1.57210000      -0.15370000
C       -0.02430000       0.04490000      -0.05400000
C        0.87330000      -0.67340000      -1.07910000
O        1.77920000      -1.09170000       0.00680000
C        1.00050000      -0.49330000       0.94920000
O        1.13700000      -0.48830000       2.13540000
C       -1.43060000      -0.55090000       0.09750000
N       -1.85430000      -0.63410000       1.38560000
O       -2.09540000      -0.86090000      -0.87050000
H        0.89010000       2.00640000      -0.30330000
H       -0.74030000       1.85430000      -0.99620000
H       -0.52910000       1.99480000       0.75970000
H        0.42910000      -1.53730000      -1.57240000
H        1.40040000      -0.03540000      -1.78970000
H       -1.20540000      -0.51900000       2.15020000
H       -2.75650000      -1.04570000       1.56330000
