20
Properties=species:S:1:pos:R:3 gdb_127089=T pbc="F F F"
C       -0.26590000       1.38000000      -0.02850000
N        0.18660000       0.00090000       0.02220000
C       -0.05010000      -0.70020000       1.27240000
C        0.04500000      -0.76080000      -1.12710000
C       -0.00590000      -2.13400000      -1.31630000
C       -0.09770000      -2.30830000      -2.72010000
C       -0.17730000      -3.59400000      -3.48180000
N       -0.11500000      -1.14720000      -3.36170000
N       -0.03090000      -0.21370000      -2.37080000
H        0.26800000       1.93260000      -0.80920000
H       -1.34890000       1.48050000      -0.20940000
H       -0.02950000       1.86520000       0.92120000
H       -1.09980000      -1.00920000       1.40460000
H        0.57770000      -1.59380000       1.31770000
H        0.22960000      -0.04980000       2.10490000
H        0.01420000      -2.89940000      -0.55920000
H       -1.04800000      -4.18640000      -3.17890000
H       -0.25640000      -3.38660000      -4.55110000
H        0.71000000      -4.21500000      -3.31480000
H       -0.02400000       0.75740000      -2.62290000
