19
Properties=species:S:1:pos:R:3 gdb_102884=T pbc="F F F"
C        0.06800000       1.56850000       0.02190000
C        0.00450000       0.04050000      -0.00190000
C       -1.43540000      -0.52410000       0.00980000
C       -1.44600000      -2.06240000      -0.12400000
C       -2.86780000      -2.65580000      -0.16830000
C       -2.84830000      -4.10560000      -0.34520000
N       -2.81050000      -5.25130000      -0.48960000
C       -2.15120000      -0.10760000       1.22180000
N       -2.71400000       0.20200000       2.18310000
H        1.10670000       1.90950000       0.00240000
H       -0.44170000       2.00120000      -0.84570000
H       -0.40150000       1.97250000       0.92380000
H        0.49570000      -0.34200000      -0.90400000
H        0.55010000      -0.37370000       0.85350000
H       -1.98020000      -0.09540000      -0.84320000
H       -0.91120000      -2.32700000      -1.04120000
H       -0.89290000      -2.50550000       0.71000000
H       -3.40740000      -2.41930000       0.75540000
H       -3.44100000      -2.21350000      -0.99190000
