15
Properties=species:S:1:pos:R:3 gdb_125779=T pbc="F F F"
C        0.02690000       1.48170000      -0.02250000
C       -0.00850000      -0.01090000       0.03930000
N       -0.14270000      -0.70130000      -1.07020000
O       -0.14200000      -2.05900000      -0.66650000
C        0.00100000      -2.09580000       0.66110000
O        0.01160000      -3.27970000       1.28800000
C        0.15640000      -4.44060000       0.56440000
N        0.08000000      -5.52670000       1.18920000
C        0.09030000      -0.84780000       1.18820000
H        0.96870000       1.86570000       0.38230000
H       -0.07360000       1.81600000      -1.05670000
H       -0.78660000       1.91430000       0.56860000
H        0.33300000      -4.27210000      -0.49800000
H        0.21700000      -6.30710000       0.54970000
H        0.21110000      -0.57540000       2.22190000
