18
Properties=species:S:1:pos:R:3 gdb_65329=T pbc="F F F"
C       -0.14990000       1.77550000       0.34010000
C       -0.14210000       0.28390000       0.10730000
O        0.80910000      -0.20300000      -0.84400000
C        1.00540000      -0.55350000       0.54560000
C        2.16310000      -0.01910000       1.20700000
C        3.13080000       0.39780000       1.78590000
C       -1.49720000      -0.36780000       0.01140000
C       -2.17670000      -0.44160000      -1.30620000
N       -1.64510000      -1.65910000      -0.66520000
H        0.86500000       2.15930000       0.45530000
H       -0.62910000       2.28230000      -0.50310000
H       -0.71880000       2.01490000       1.24470000
H        0.79790000      -1.60110000       0.76170000
H        3.98820000       0.76860000       2.29170000
H       -2.10540000      -0.25640000       0.90710000
H       -3.25940000      -0.38250000      -1.36520000
H       -1.64430000      -0.04730000      -2.16770000
H       -0.75600000      -1.87870000      -1.11400000
