15
Properties=species:S:1:pos:R:3 gdb_18555=T pbc="F F F"
N       -0.10660000       1.23540000      -0.50560000
C       -0.03760000       0.05910000      -0.08240000
O        1.02630000      -0.65710000       0.43100000
C        0.19330000      -1.84740000       0.61700000
C       -0.14930000      -2.09790000       2.07800000
O       -1.12420000      -1.12040000       2.41330000
C       -1.96470000      -0.96150000       1.27580000
C       -1.03250000      -1.07550000       0.06280000
H        0.79260000       1.71430000      -0.43360000
H        0.60110000      -2.69970000       0.07320000
H       -0.55220000      -3.11940000       2.18570000
H        0.70430000      -1.97780000       2.74920000
H       -2.73020000      -1.75310000       1.23720000
H       -2.45880000       0.00900000       1.35370000
H       -1.51290000      -1.41340000      -0.85400000
