21
Properties=species:S:1:pos:R:3 gdb_82797=T pbc="F F F"
C       -0.20700000       1.60720000      -0.00060000
C        0.05260000       0.10640000      -0.00460000
C        1.12000000      -0.57180000      -0.91990000
C        2.39460000       0.18480000      -0.53690000
C        2.35320000      -0.11880000       1.01540000
C        3.11800000      -1.42180000       1.16410000
C        2.40030000      -2.38470000       0.57260000
C        1.09490000      -1.78310000       0.14550000
C        0.85940000      -0.58920000       1.11440000
H        0.68680000       2.19480000       0.22620000
H       -0.59250000       1.94630000      -0.96900000
H       -0.95910000       1.85850000       0.75580000
H       -0.90170000      -0.42030000      -0.12330000
H        0.93380000      -0.75770000      -1.97790000
H        3.30210000      -0.20740000      -1.00050000
H        2.32460000       1.24960000      -0.77010000
H        2.66290000       0.70510000       1.65850000
H        4.13140000      -1.49610000       1.54020000
H        2.70330000      -3.40860000       0.39140000
H        0.24990000      -2.45340000      -0.01300000
H        0.46890000      -0.74850000       2.12180000
