14
Properties=species:S:1:pos:R:3 gdb_128002=T pbc="F F F"
C       -0.14130000       1.42370000       0.11000000
N       -0.19920000      -0.02880000       0.15340000
C        0.62550000      -0.65370000       0.86720000
O        1.57510000       0.02550000       1.60680000
N        2.52460000      -0.64530000       2.39480000
C        2.45210000      -1.91260000       2.40420000
O        1.58110000      -2.71530000       1.75630000
C        0.60740000      -2.14250000       0.94510000
N       -0.22000000      -2.85860000       0.32960000
H        0.84510000       1.78080000      -0.21080000
H       -0.89690000       1.78650000      -0.58870000
H       -0.33410000       1.85950000       1.09830000
H        3.16890000      -2.46150000       3.00200000
H       -0.05410000      -3.84810000       0.52300000
