16
Properties=species:S:1:pos:R:3 gdb_112249=T pbc="F F F"
O       -0.02500000       1.30850000      -0.15910000
C        0.05230000      -0.09800000      -0.02490000
C       -1.32410000      -0.66150000       0.27520000
O       -2.22130000      -0.42870000      -0.88090000
C       -2.46110000      -1.77460000      -1.03250000
N       -3.12980000      -2.41420000      -1.87520000
C       -1.61620000      -2.17630000       0.16660000
C       -0.51930000      -3.18590000      -0.08760000
O        0.64580000      -3.00930000       0.15620000
H       -0.61280000       1.49050000      -0.90110000
H        0.47000000      -0.57470000      -0.92140000
H        0.72920000      -0.31040000       0.80620000
H       -1.74750000      -0.17440000       1.15700000
H       -3.56650000      -1.79890000      -2.56320000
H       -2.24150000      -2.56650000       0.97810000
H       -0.89080000      -4.13810000      -0.52110000
