25
Properties=species:S:1:pos:R:3 gdb_60269=T pbc="F F F"
C       -0.23440000       1.57460000       0.14580000
C       -0.05450000       0.05510000       0.01600000
C       -1.41440000      -0.65530000       0.07770000
C        0.70290000      -0.35410000      -1.26250000
C        2.18770000      -0.00470000      -1.30770000
C        2.96020000      -0.61530000      -2.48340000
C        4.18110000       0.31140000      -2.58170000
C        3.62160000       1.66770000      -2.09580000
O        2.36560000       1.40420000      -1.47090000
H        0.72300000       2.09650000       0.11680000
H       -0.84620000       1.96120000      -0.67860000
H       -0.74580000       1.82410000       1.08200000
H        0.54150000      -0.29120000       0.87370000
H       -2.04400000      -0.36890000      -0.77360000
H       -1.30250000      -1.74490000       0.05590000
H       -1.95680000      -0.39100000       0.99150000
H        0.62870000      -1.44400000      -1.37590000
H        0.21730000       0.08800000      -2.14310000
H        2.66040000      -0.32640000      -0.36110000
H        3.22480000      -1.66300000      -2.31880000
H        2.34820000      -0.55590000      -3.39090000
H        4.97690000      -0.03640000      -1.91560000
H        4.59860000       0.36960000      -3.58960000
H        4.30230000       2.15660000      -1.38580000
H        3.44540000       2.36530000      -2.92340000
