12
Properties=species:S:1:pos:R:3 gdb_123283=T pbc="F F F"
C        0.04110000      -3.72340000      -0.01790000
C        0.02910000      -2.51550000      -0.01140000
C        0.01640000      -1.15780000      -0.00390000
C       -0.00200000       0.05320000       0.00290000
C       -0.00050000       1.46660000       0.01050000
N       -1.12800000       2.18100000       0.02960000
N       -0.65800000       3.44300000       0.03020000
C        0.69260000       3.45020000       0.01220000
N        1.14970000       2.21840000      -0.00060000
H        0.05090000      -4.78520000      -0.02360000
H       -1.30530000       4.21480000       0.04310000
H        1.28130000       4.35530000       0.00930000
