14
Properties=species:S:1:pos:R:3 gdb_132087=T pbc="F F F"
C        0.08070000       1.50030000       0.02320000
C       -0.04510000       0.01610000       0.00740000
C       -1.19230000      -0.68560000      -0.14160000
F       -2.36410000      -0.05180000      -0.29400000
C       -1.17580000      -2.10590000      -0.13910000
C       -0.00140000      -2.76430000       0.01370000
C        1.24720000      -2.04690000       0.17590000
O        2.34820000      -2.50400000       0.31920000
O        1.12410000      -0.64150000       0.15960000
H        0.74630000       1.83450000      -0.77970000
H       -0.89720000       1.96490000      -0.10480000
H        0.51780000       1.83520000       0.96990000
H       -2.11540000      -2.63470000      -0.26120000
H        0.06450000      -3.84420000       0.02250000
