21
Properties=species:S:1:pos:R:3 gdb_63669=T pbc="F F F"
C        0.04680000       1.52230000      -0.18110000
C       -0.03730000       0.02760000       0.05600000
C       -1.16790000      -0.65340000      -0.69200000
N        1.26220000      -0.67220000       0.12780000
C        0.41270000      -0.59840000       1.33420000
C        0.98570000       0.14290000       2.52120000
C        2.13990000      -0.66290000       3.15570000
C        2.73090000       0.00920000       4.30950000
N        3.18360000       0.55540000       5.22190000
H        0.94140000       1.95380000       0.27010000
H        0.08940000       1.72940000      -1.25620000
H       -0.83360000       2.03430000       0.22260000
H       -1.04050000      -0.53720000      -1.77460000
H       -1.21010000      -1.72410000      -0.46710000
H       -2.13670000      -0.21620000      -0.42640000
H        1.19590000      -1.59240000      -0.30060000
H       -0.11850000      -1.51070000       1.60970000
H        1.36660000       1.12080000       2.21990000
H        0.20220000       0.31550000       3.26720000
H        1.78790000      -1.65160000       3.47350000
H        2.91570000      -0.82690000       2.40010000
