21
Properties=species:S:1:pos:R:3 gdb_79967=T pbc="F F F"
C       -0.23820000       1.55220000       0.03740000
C        0.05000000       0.04220000      -0.01850000
C        0.92860000      -0.40830000      -1.17120000
C        1.90800000      -1.22840000      -0.77380000
C        1.93250000      -1.38630000       0.70770000
C        2.19340000      -0.09400000       1.46220000
O        2.80360000       1.01510000       0.87550000
C        0.76450000      -0.52230000       1.22420000
C       -0.08990000      -0.93610000       2.39840000
H        0.68180000       2.12540000       0.16860000
H       -0.73710000       1.88870000      -0.87770000
H       -0.90080000       1.78420000       0.87760000
H       -0.92110000      -0.47010000      -0.11510000
H        0.74190000      -0.09970000      -2.19460000
H        2.63430000      -1.70130000      -1.42610000
H        2.21370000      -2.33450000       1.15500000
H        2.54750000      -0.20820000       2.48300000
H        2.76090000       0.89230000      -0.08240000
H       -0.64570000      -0.08220000       2.80460000
H       -0.82050000      -1.70160000       2.11020000
H        0.51710000      -1.34740000       3.21140000
