18
Properties=species:S:1:pos:R:3 gdb_116947=T pbc="F F F"
N       -0.21240000       1.10880000      -0.63090000
C       -0.59000000      -0.20590000      -0.63800000
O       -0.72980000      -0.84390000      -1.65630000
C       -0.87190000      -0.76390000       0.77310000
C       -0.98860000      -2.21110000       0.81550000
C       -1.08470000      -3.40910000       0.86420000
C       -1.20140000      -4.86090000       0.85970000
C       -1.30090000      -5.42720000      -0.56160000
O       -1.40710000      -6.83630000      -0.43780000
H        0.03460000       1.52980000      -1.51150000
H        0.03450000       1.59210000       0.21480000
H       -0.08580000      -0.42000000       1.45880000
H       -1.80050000      -0.29240000       1.12500000
H       -0.33760000      -5.32000000       1.35590000
H       -2.08730000      -5.17950000       1.42260000
H       -2.17650000      -4.99370000      -1.06600000
H       -0.40980000      -5.13250000      -1.13440000
H       -1.46960000      -7.21070000      -1.32100000
