19
Properties=species:S:1:pos:R:3 gdb_61631=T pbc="F F F"
O       -0.95090000       0.61810000       0.07470000
C        0.14410000      -0.26530000      -0.17280000
C        1.10580000       0.29490000      -1.24200000
C        0.38890000       0.59120000      -2.54060000
C        1.16210000       0.63980000      -3.84440000
C        0.20640000      -0.49370000      -3.56330000
O        0.71160000      -1.75690000      -3.23240000
C        0.85870000      -0.58850000       1.06500000
C        1.46000000      -0.80070000       2.08450000
H       -0.61460000       1.34810000       0.60660000
H       -0.31470000      -1.17600000      -0.57410000
H        1.57730000       1.20520000      -0.84970000
H        1.90070000      -0.43730000      -1.40680000
H       -0.44110000       1.28240000      -2.43960000
H        0.89700000       1.38090000      -4.59090000
H        2.22050000       0.40300000      -3.79430000
H       -0.73350000      -0.51270000      -4.11430000
H        1.08330000      -2.14920000      -4.02890000
H        1.97910000      -1.01070000       2.98690000
