21
Properties=species:S:1:pos:R:3 gdb_97883=T pbc="F F F"
C        0.10050000       0.79470000       0.90610000
C       -0.33790000       0.69550000      -0.56670000
C       -1.51240000      -0.14980000      -0.75270000
C       -2.47890000      -0.85660000      -0.87360000
C       -3.64100000      -1.71590000      -1.01850000
C       -3.72650000      -2.86760000       0.00210000
O       -2.84570000      -3.10650000       0.78880000
C       -5.01180000      -3.68480000      -0.06330000
C       -5.01030000      -4.89340000       0.86930000
H        0.98760000       1.42870000       0.99830000
H       -0.69620000       1.22350000       1.51980000
H        0.33660000      -0.19460000       1.30630000
H       -0.54450000       1.70050000      -0.95710000
H        0.49140000       0.30380000      -1.16970000
H       -4.57310000      -1.13710000      -0.95240000
H       -3.66570000      -2.17400000      -2.01850000
H       -5.84470000      -3.00700000       0.17250000
H       -5.17760000      -3.98440000      -1.10710000
H       -5.95910000      -5.43310000       0.80420000
H       -4.20170000      -5.58310000       0.61340000
H       -4.85570000      -4.58340000       1.90540000
