20
Properties=species:S:1:pos:R:3 gdb_97103=T pbc="F F F"
C       -0.06290000       1.38320000      -0.03840000
N       -0.18330000      -0.06070000      -0.18180000
C        0.57920000      -0.66530000      -0.96890000
O        1.59810000      -0.18930000      -1.79190000
C        1.90240000      -1.53970000      -2.26350000
C        0.78180000      -2.08170000      -1.38190000
C        0.71950000      -3.30860000      -0.51230000
C       -0.25590000      -3.14390000      -1.64780000
C       -1.72050000      -2.86870000      -1.38840000
H        0.74440000       1.82570000      -0.63340000
H       -1.00900000       1.85490000      -0.32720000
H        0.10500000       1.62630000       1.01670000
H        1.75820000      -1.61750000      -3.34510000
H        2.92230000      -1.82760000      -1.99200000
H        1.51840000      -4.03660000      -0.61000000
H        0.35450000      -3.16110000       0.49920000
H       -0.04850000      -3.75600000      -2.52330000
H       -1.84190000      -2.17630000      -0.55150000
H       -2.19730000      -2.41660000      -2.26450000
H       -2.25350000      -3.79720000      -1.15720000
