22
Properties=species:S:1:pos:R:3 gdb_33260=T pbc="F F F"
C       -0.04690000       1.56960000      -0.03080000
C        0.00460000       0.04000000       0.00590000
C        0.73760000      -0.50470000       1.23590000
C        0.78370000      -2.03800000       1.26390000
N        1.47500000      -2.57660000       2.42230000
C        2.82650000      -2.80800000       2.50890000
C        3.11520000      -3.22640000       3.78770000
C        1.89040000      -3.24610000       4.50940000
C        0.90180000      -2.83900000       3.64300000
H        0.96080000       1.99920000      -0.04590000
H       -0.57580000       1.92920000      -0.91870000
H       -0.56240000       1.96940000       0.84930000
H       -1.01750000      -0.36140000      -0.01590000
H        0.49450000      -0.33190000      -0.90400000
H        1.76430000      -0.11870000       1.26240000
H        0.25010000      -0.14800000       2.15180000
H       -0.23350000      -2.44510000       1.25600000
H        1.28330000      -2.41570000       0.36490000
H        3.46200000      -2.65890000       1.64970000
H        4.09130000      -3.50080000       4.15760000
H        1.74780000      -3.53850000       5.53850000
H       -0.16090000      -2.71720000       3.78460000
