17
Properties=species:S:1:pos:R:3 gdb_84463=T pbc="F F F"
C       -0.03190000       1.60160000       0.07210000
C        0.01710000       0.06810000      -0.01490000
C        0.80260000      -0.45220000      -1.20710000
C        1.77410000      -1.29800000      -0.86150000
C        1.82100000      -1.45230000       0.62980000
O        2.10870000      -0.19130000       1.30590000
C        0.74590000      -0.58130000       1.16260000
C        2.30640000      -2.64680000       1.25390000
C        2.72480000      -3.66360000       1.73950000
H        0.97840000       2.00250000       0.18660000
H       -0.47610000       2.03030000      -0.83140000
H       -0.63190000       1.92570000       0.92800000
H       -1.01180000      -0.31750000      -0.05010000
H        0.59900000      -0.11340000      -2.21730000
H        2.46740000      -1.80090000      -1.52280000
H        0.22370000      -0.80090000       2.09020000
H        3.09090000      -4.55770000       2.18030000
