16
Properties=species:S:1:pos:R:3 gdb_75866=T pbc="F F F"
C        0.19170000       1.33570000       0.34400000
N        0.10600000      -0.09300000       0.08350000
C       -1.10240000      -0.78960000      -0.00910000
N       -2.23480000      -0.23060000       0.12710000
C       -0.67120000      -2.23000000      -0.28710000
N        0.79190000      -2.22210000      -0.32860000
C        1.13360000      -0.99930000      -0.11350000
C        2.57760000      -0.63930000      -0.08970000
O        3.00990000       0.47000000       0.10170000
H        0.69220000       1.85510000      -0.47600000
H       -0.83380000       1.69460000       0.43980000
H        0.74270000       1.53460000       1.26570000
H       -2.99010000      -0.90560000       0.02520000
H       -1.02540000      -2.91470000       0.49260000
H       -1.07600000      -2.59550000      -1.23830000
H        3.22260000      -1.52040000      -0.27070000
