18
Properties=species:S:1:pos:R:3 gdb_119675=T pbc="F F F"
O       -0.11000000       1.43340000      -0.00320000
C        0.04130000       0.02430000      -0.03560000
C       -1.34990000      -0.58820000       0.09990000
C       -1.34870000      -2.08590000       0.05950000
N       -0.71500000      -2.98110000       1.09350000
C       -1.30710000      -3.95510000       0.12100000
C       -2.55780000      -3.06240000      -0.10470000
O       -2.48820000      -3.10380000      -1.55900000
C       -1.09190000      -3.06900000      -1.14720000
H        0.76210000       1.83350000      -0.06710000
H        0.50260000      -0.30820000      -0.98000000
H        0.68490000      -0.32690000       0.78700000
H       -1.79650000      -0.24830000       1.04100000
H       -1.98280000      -0.22050000      -0.71610000
H        0.30400000      -2.96950000       0.99970000
H       -1.24540000      -5.03770000       0.22950000
H       -3.53080000      -3.06710000       0.38420000
H       -0.31510000      -3.08680000      -1.91400000
