22
Properties=species:S:1:pos:R:3 gdb_111578=T pbc="F F F"
C        0.02980000       1.57450000       0.07710000
C       -0.14430000       0.05570000      -0.03720000
C        0.67100000      -0.55010000      -1.17280000
C        2.23130000      -0.54160000      -1.15020000
C        2.84210000      -1.20490000       0.10180000
N        2.56730000      -2.59030000      -0.41150000
C        1.11630000      -2.92760000      -0.21430000
C        0.68040000      -2.08630000      -1.43140000
C        2.20340000      -1.97840000      -1.76250000
H        1.07450000       1.84070000       0.27180000
H       -0.27130000       2.07820000      -0.84820000
H       -0.57430000       1.98510000       0.89190000
H        0.12720000      -0.41280000       0.91630000
H       -1.20430000      -0.18320000      -0.19710000
H        0.37020000      -0.07390000      -2.11560000
H        2.74200000       0.32020000      -1.58210000
H        3.92420000      -1.04960000       0.16690000
H        2.40470000      -0.98280000       1.08190000
H        0.96850000      -4.00000000      -0.38070000
H        0.71460000      -2.67620000       0.77370000
H       -0.08760000      -2.49070000      -2.09290000
H        2.70860000      -2.32070000      -2.66510000
