16
Properties=species:S:1:pos:R:3 gdb_91574=T pbc="F F F"
O       -0.35120000       1.74450000       0.75900000
C       -0.13570000       0.49470000       0.17390000
C        0.45570000      -0.67410000       1.05930000
C       -0.83960000      -1.44520000       0.80900000
O       -1.91720000      -0.60080000       1.27520000
C       -1.39250000      -0.37830000      -0.04010000
C       -2.38290000      -0.37790000      -1.17400000
C       -1.73880000      -0.60400000      -2.46780000
N       -1.21190000      -0.78500000      -3.47960000
H       -0.93500000       1.59310000       1.51380000
H        0.44030000       0.65380000      -0.74020000
H        1.33890000      -1.13520000       0.61190000
H        0.65480000      -0.42210000       2.10340000
H       -1.02760000      -2.51200000       0.79680000
H       -3.13600000      -1.15340000      -0.99920000
H       -2.91010000       0.58380000      -1.20370000
