18
Properties=species:S:1:pos:R:3 gdb_1979=T pbc="F F F"
C        0.20180000       1.34970000       0.11060000
O       -0.23500000       0.03940000      -0.16850000
C        0.45710000      -0.56120000      -1.23180000
C        1.84400000      -1.17360000      -0.87960000
N        1.19740000      -2.49140000      -0.74430000
C        1.88120000      -3.65670000      -1.24970000
C       -0.01030000      -2.01480000      -1.44420000
H        1.25670000       1.38000000       0.42220000
H        0.08310000       2.01130000      -0.76260000
H       -0.41500000       1.72970000       0.92850000
H        0.44160000       0.09040000      -2.11590000
H        2.55040000      -1.10920000      -1.72450000
H        2.33870000      -0.80860000       0.02770000
H        2.79380000      -3.83400000      -0.67030000
H        1.24180000      -4.53970000      -1.14280000
H        2.16650000      -3.56960000      -2.31740000
H       -0.95920000      -2.28350000      -0.96880000
H       -0.04460000      -2.28980000      -2.51120000
