14
Properties=species:S:1:pos:R:3 gdb_130135=T pbc="F F F"
N        0.00210000       1.37260000       0.15420000
C       -0.00090000      -0.00800000       0.04100000
N       -1.13140000      -0.64790000       0.01360000
N       -1.07570000      -1.99830000      -0.00570000
C        0.04540000      -2.82140000      -0.02410000
O       -0.06020000      -4.03820000      -0.04720000
C        1.28570000      -2.06230000      -0.01860000
C        1.26700000      -0.70850000       0.01420000
O        2.35820000       0.09510000       0.01090000
H        0.80150000       1.82830000      -0.25960000
H       -0.88210000       1.79750000      -0.08580000
H       -1.97410000      -2.45910000      -0.01730000
H        2.20950000      -2.62990000      -0.04340000
H        3.15690000      -0.44430000      -0.02260000
