20
Properties=species:S:1:pos:R:3 gdb_99706=T pbc="F F F"
C        0.95870000       0.99710000       0.49560000
C        0.47190000      -0.36970000       0.36950000
C        0.05130000      -1.49490000       0.27090000
C       -0.45100000      -2.86830000       0.15140000
C       -1.90500000      -2.91520000      -0.36460000
O       -2.02760000      -2.49430000      -1.70660000
N        0.34910000      -3.77530000      -0.69640000
C        1.12940000      -3.21060000      -1.80040000
C        1.80260000      -3.73050000      -0.58090000
H        2.05130000       1.03850000       0.42880000
H        0.55240000       1.63910000      -0.29360000
H        0.67050000       1.43170000       1.45910000
H       -0.45810000      -3.32310000       1.15200000
H       -2.27230000      -3.94290000      -0.22970000
H       -2.52540000      -2.24260000       0.23450000
H       -1.56150000      -3.14270000      -2.24430000
H        1.12360000      -3.79510000      -2.71660000
H        1.11840000      -2.13250000      -1.93300000
H        2.23420000      -2.98810000       0.08680000
H        2.29990000      -4.69620000      -0.58680000
