19
Properties=species:S:1:pos:R:3 gdb_33529=T pbc="F F F"
C       -0.37590000      -1.37020000       0.21290000
C       -0.21880000      -0.18290000       0.10750000
C       -0.05160000       1.26480000      -0.00860000
C       -0.11160000       2.02970000       1.35120000
C        1.38720000       2.28290000       1.12130000
O        1.35090000       1.63090000      -0.16820000
C       -0.90600000       1.81780000      -1.13380000
C       -0.56830000       3.14200000      -1.76520000
C       -0.36000000       1.85960000      -2.53480000
H       -0.50570000      -2.42070000       0.29990000
H       -0.74250000       2.91840000       1.31440000
H       -0.37030000       1.42210000       2.21750000
H        1.69690000       3.33040000       1.03680000
H        2.06110000       1.76490000       1.81350000
H       -1.95860000       1.57380000      -1.02180000
H       -1.38650000       3.79500000      -2.04770000
H        0.32440000       3.64980000      -1.41900000
H        0.66510000       1.53620000      -2.67250000
H       -1.02970000       1.62310000      -3.35360000
