20
Properties=species:S:1:pos:R:3 gdb_77953=T pbc="F F F"
C       -0.55600000       1.42350000      -0.05940000
C       -0.06110000      -0.00690000       0.05660000
C        1.18190000      -0.58230000      -0.69290000
C        2.15150000       0.12950000       0.32210000
C        2.48300000       1.53890000       0.30830000
C        2.86960000       2.67930000       0.31170000
C        0.95950000      -0.51210000       1.12480000
N        1.05420000      -1.75640000       0.26060000
C        2.16090000      -2.68940000       0.43210000
H        0.22960000       2.17300000       0.00770000
H       -1.07330000       1.55610000      -1.01630000
H       -1.28710000       1.62380000       0.73210000
H       -0.89450000      -0.71020000      -0.01830000
H        1.33150000      -0.72310000      -1.76550000
H        3.08590000      -0.41820000       0.45760000
H        3.17740000       3.69560000       0.31020000
H        0.84500000      -0.56950000       2.20940000
H        1.96060000      -3.29560000       1.32160000
H        2.17500000      -3.36330000      -0.43070000
H        3.17180000      -2.26510000       0.53940000
