16
Properties=species:S:1:pos:R:3 gdb_14077=T pbc="F F F"
C       -0.03740000       1.48010000      -0.16310000
C        0.03320000      -0.01370000       0.00950000
O        1.34080000      -0.61530000      -0.02900000
C        0.63140000      -0.64750000       1.18630000
C        1.12020000      -0.06880000       2.52980000
N        0.75590000      -1.37460000       3.11790000
C        0.20590000      -1.89230000       1.93870000
N       -0.42120000      -2.93060000       1.58720000
H        0.74490000       1.98070000       0.41330000
H        0.08860000       1.74930000      -1.21670000
H       -1.01250000       1.85660000       0.16460000
H       -0.72220000      -0.59660000      -0.51840000
H        2.18910000       0.15610000       2.58220000
H        0.53950000       0.78320000       2.90140000
H        0.39310000      -1.51780000       4.04900000
H       -0.58250000      -3.56610000       2.37030000
