19
Properties=species:S:1:pos:R:3 gdb_113061=T pbc="F F F"
C       -0.45330000       1.33980000       0.41000000
C       -0.09310000      -0.12720000       0.15820000
C        0.93370000      -0.64940000       1.15280000
O        0.46010000      -0.69670000       2.52910000
C        0.68220000      -2.12610000       2.66810000
C       -0.61260000      -2.85230000       3.01490000
O       -1.14250000      -2.35760000       4.22660000
C        1.17160000      -2.16480000       1.21480000
O        1.53820000      -3.00680000       0.45300000
H        0.42450000       1.98630000       0.30420000
H       -1.21190000       1.68300000      -0.29910000
H       -0.84730000       1.47120000       1.42170000
H       -0.99280000      -0.75130000       0.21100000
H        0.32520000      -0.25760000      -0.84740000
H        1.86720000      -0.07150000       1.08540000
H        1.45370000      -2.33850000       3.41980000
H       -1.32980000      -2.74770000       2.18580000
H       -0.41240000      -3.91920000       3.15450000
H       -1.21930000      -1.40180000       4.11810000
