15
Properties=species:S:1:pos:R:3 gdb_98053=T pbc="F F F"
C        0.24310000       1.43580000       0.07580000
O        0.29910000       0.00260000       0.02670000
C        0.89110000      -0.50480000      -1.05310000
O        1.36580000       0.13180000      -1.95880000
C        0.89740000      -2.04960000      -1.00590000
O        0.41250000      -2.66040000      -0.08240000
C        1.52310000      -2.66770000      -2.14370000
C        2.03740000      -3.23470000      -3.07700000
C        2.65920000      -3.90030000      -4.20590000
H        1.25120000       1.85770000       0.06260000
H       -0.31360000       1.82550000      -0.78020000
H       -0.26420000       1.67920000       1.00850000
H        2.61670000      -4.98930000      -4.10380000
H        2.15820000      -3.62280000      -5.13980000
H        3.71020000      -3.60450000      -4.29520000
