19
Properties=species:S:1:pos:R:3 gdb_64157=T pbc="F F F"
C        0.24620000       1.45960000       0.00900000
C       -0.10160000      -0.03530000       0.02450000
O       -1.51900000      -0.21230000       0.00910000
C        0.48340000      -0.81120000      -1.18520000
C        1.76680000      -1.50760000      -0.67480000
C        1.56470000      -1.53060000       0.82380000
C        2.39710000      -2.31050000       1.74490000
O        3.33260000      -2.99800000       1.39910000
C        0.55220000      -0.73900000       1.19980000
H        1.32630000       1.61530000      -0.07140000
H       -0.24240000       1.94290000      -0.84290000
H       -0.09160000       1.95330000       0.92850000
H       -1.90780000       0.40090000       0.64220000
H       -0.26130000      -1.55760000      -1.47370000
H        0.65670000      -0.16330000      -2.04780000
H        1.90980000      -2.51060000      -1.08630000
H        2.67300000      -0.94310000      -0.92740000
H        2.10520000      -2.23090000       2.81630000
H        0.23010000      -0.57730000       2.22480000
