17
Properties=species:S:1:pos:R:3 gdb_8307=T pbc="F F F"
O        0.11240000       1.42150000       0.02250000
C        0.03440000       0.00250000       0.03690000
C       -1.43390000      -0.39570000       0.05490000
N       -2.11000000      -0.08010000      -1.18820000
C       -2.44500000       1.33820000      -1.47950000
C       -3.83560000       0.86180000      -1.91260000
O       -4.76810000       1.34670000      -2.47840000
C       -3.51660000      -0.52250000      -1.32480000
H        1.02830000       1.67440000      -0.12330000
H        0.50980000      -0.43410000      -0.85320000
H        0.52830000      -0.41210000       0.92990000
H       -1.48950000      -1.48010000       0.20550000
H       -1.91830000       0.08280000       0.92920000
H       -2.49050000       1.98540000      -0.59050000
H       -1.81740000       1.82590000      -2.23060000
H       -3.67770000      -1.39690000      -1.96460000
H       -4.04430000      -0.67790000      -0.36820000
