17
Properties=species:S:1:pos:R:3 gdb_102343=T pbc="F F F"
C        0.04140000       1.47230000      -0.10670000
O       -0.00610000       0.06920000       0.12010000
C       -1.29200000      -0.54090000       0.04360000
C       -2.13920000      -0.21900000       1.33110000
N       -1.49220000      -0.54780000       2.58070000
C       -2.04490000      -0.17450000      -1.16190000
C       -2.70390000       0.15770000      -2.10980000
C       -1.02260000      -1.99680000       0.02900000
N       -0.85740000      -3.13870000       0.07170000
H        1.09740000       1.74150000      -0.04780000
H       -0.34650000       1.73380000      -1.09720000
H       -0.51110000       2.03850000       0.65400000
H       -2.36580000       0.85150000       1.29940000
H       -3.09130000      -0.75070000       1.25140000
H       -1.39060000      -1.55420000       2.67520000
H       -0.55480000      -0.15700000       2.59850000
H       -3.27790000       0.43360000      -2.96080000
