19
Properties=species:S:1:pos:R:3 gdb_38345=T pbc="F F F"
C       -0.09810000       1.60990000       0.11180000
C        1.39840000       1.21980000       0.06910000
O        1.10190000       0.12350000       1.02670000
C        0.02710000       0.07310000       0.00290000
C        1.12130000       0.22500000      -1.09110000
C        0.79380000       0.68210000      -2.52750000
C        1.82760000      -0.08610000      -3.36610000
O        2.05130000      -1.29300000      -2.65810000
C        2.11300000      -0.94280000      -1.28240000
H       -0.44410000       1.96960000       1.08110000
H       -0.52400000       2.16380000      -0.72720000
H        2.28450000       1.82700000       0.26330000
H       -0.73550000      -0.70010000       0.11130000
H       -0.21940000       0.37380000      -2.80460000
H        0.86410000       1.76400000      -2.66510000
H        1.48530000      -0.33940000      -4.37250000
H        2.76200000       0.49440000      -3.45390000
H        3.13290000      -0.62550000      -1.01000000
H        1.86520000      -1.82670000      -0.69300000
