17
Properties=species:S:1:pos:R:3 gdb_51916=T pbc="F F F"
O       -0.57710000       0.74680000       1.15950000
C       -0.20070000       1.44970000       0.25140000
N        1.03770000       1.37100000      -0.34020000
C        2.02220000       0.46220000       0.03720000
N        3.13600000       0.45720000      -0.56080000
C        4.17980000      -0.47700000      -0.19020000
C        3.89620000      -1.47170000       0.95960000
C        5.04260000      -2.33520000       1.20410000
C        6.00860000      -3.02920000       1.37620000
H       -0.82150000       2.24250000      -0.20640000
H        1.27300000       1.99870000      -1.09630000
H        1.69790000      -0.18040000       0.85640000
H        4.44960000      -1.04520000      -1.08870000
H        5.07270000       0.10780000       0.06240000
H        3.64770000      -0.92240000       1.87690000
H        3.01920000      -2.08530000       0.71590000
H        6.85330000      -3.65080000       1.54170000
