17
Properties=species:S:1:pos:R:3 gdb_13080=T pbc="F F F"
C       -0.35080000       1.52630000      -0.05850000
C        0.16160000       0.10120000      -0.04440000
O        1.46660000      -0.03560000      -0.65390000
C        1.90880000      -0.91670000       0.39870000
C        0.67420000      -0.57570000       1.25920000
C        0.95560000       0.36140000       2.44260000
C        1.64590000      -0.33310000       3.52840000
N        2.19260000      -0.90200000       4.37280000
H        0.33540000       2.21350000       0.44340000
H       -0.46120000       1.86230000      -1.09400000
H       -1.33290000       1.58980000       0.42260000
H       -0.56330000      -0.55140000      -0.55450000
H        1.95360000      -1.96250000       0.06910000
H        2.88690000      -0.62650000       0.79860000
H        0.08410000      -1.42880000       1.59850000
H        1.57710000       1.20530000       2.12360000
H        0.02260000       0.78190000       2.83460000
