17
Properties=species:S:1:pos:R:3 gdb_128576=T pbc="F F F"
C        0.01550000       1.44040000      -0.05690000
O        0.16640000       0.03950000       0.10160000
C        0.65570000      -0.64720000      -0.94710000
C        0.86880000      -2.00460000      -1.05030000
C        1.38540000      -2.17330000      -2.35550000
C        1.83010000      -3.44880000      -2.99780000
O        0.88450000      -4.46610000      -2.68790000
N        1.48490000      -1.02440000      -3.01570000
N        1.03920000      -0.09280000      -2.12820000
H        0.98030000       1.92930000      -0.24780000
H       -0.68320000       1.67940000      -0.86980000
H       -0.39160000       1.81390000       0.88310000
H        0.66490000      -2.75410000      -0.30590000
H        1.92130000      -3.28030000      -4.08020000
H        2.82910000      -3.72410000      -2.62120000
H        1.24390000      -5.30290000      -2.99660000
H        1.00460000       0.86980000      -2.41070000
