18
Properties=species:S:1:pos:R:3 gdb_81145=T pbc="F F F"
C       -0.17600000       1.64690000      -0.04340000
C        0.01950000       0.14380000       0.01080000
C        1.16710000      -0.60950000      -0.71150000
C        2.46200000       0.07510000      -0.23170000
C        2.12590000       0.10970000       1.29180000
C        0.73990000      -0.57900000       1.19230000
O        1.01800000      -1.68230000       0.27920000
C        0.05410000      -0.93580000       2.41760000
N       -0.50280000      -1.17640000       3.40120000
H        0.74690000       2.20460000       0.13470000
H       -0.55960000       1.94300000      -1.02530000
H       -0.90970000       1.96440000       0.70460000
H       -0.91480000      -0.38840000      -0.18010000
H        1.09400000      -0.95090000      -1.74270000
H        3.33450000      -0.54210000      -0.45130000
H        2.61490000       1.06500000      -0.66840000
H        2.80740000      -0.49150000       1.89450000
H        2.07120000       1.11390000       1.71700000
