19
Properties=species:S:1:pos:R:3 gdb_16023=T pbc="F F F"
C        0.04240000       1.51220000      -0.02570000
N        1.26780000       0.69220000       0.04870000
C       -0.05160000       0.03530000       0.02370000
C       -0.41780000      -0.71700000       1.29060000
C        0.10720000      -2.15860000       1.18710000
C       -0.34150000      -2.79240000      -0.13220000
O        0.07170000      -2.02430000      -1.25400000
C       -0.46910000      -0.71480000      -1.22610000
H       -0.17020000       2.10080000       0.86310000
H       -0.19550000       2.01240000      -0.96230000
H        1.70530000       0.63610000      -0.86860000
H        0.00150000      -0.20540000       2.16140000
H       -1.51080000      -0.72600000       1.40390000
H        1.20240000      -2.14610000       1.22010000
H       -0.24410000      -2.76690000       2.02810000
H        0.09720000      -3.78500000      -0.26750000
H       -1.44080000      -2.90370000      -0.14100000
H       -1.57200000      -0.76060000      -1.27950000
H       -0.10840000      -0.20880000      -2.12840000
