18
Properties=species:S:1:pos:R:3 gdb_7255=T pbc="F F F"
C       -0.02920000       1.36170000      -0.33440000
C        0.03350000      -0.09750000       0.15610000
C        0.99610000      -0.25160000       1.34050000
C       -1.37200000      -0.53110000       0.56970000
O       -1.89430000      -0.17300000       1.60580000
N       -2.02840000      -1.34020000      -0.34280000
C       -3.32550000      -1.79960000      -0.17530000
N       -3.85950000      -2.53800000      -1.06030000
H        0.96690000       1.70720000      -0.62600000
H       -0.69290000       1.46940000      -1.19810000
H       -0.40140000       2.01010000       0.46400000
H        0.37560000      -0.73100000      -0.67220000
H        0.62530000       0.31450000       2.19840000
H        1.09330000      -1.29840000       1.64410000
H        1.99000000       0.12040000       1.07490000
H       -1.56330000      -1.62820000      -1.19180000
H       -3.76590000      -1.45010000       0.76030000
H       -4.80820000      -2.78670000      -0.78610000
