20
Properties=species:S:1:pos:R:3 gdb_96262=T pbc="F F F"
O       -0.16330000       1.44700000       0.12790000
C       -0.00440000       0.03140000       0.02500000
C        0.88570000      -0.49150000       1.17510000
C        1.67870000      -1.75800000       0.84670000
O        0.86820000      -2.78440000       0.26560000
C       -0.19010000      -3.17220000       1.04630000
N       -1.38950000      -2.87300000       0.81720000
C       -1.66100000      -1.98730000      -0.32210000
C       -1.44730000      -0.50060000       0.00620000
H        0.70950000       1.85040000       0.09320000
H        0.47600000      -0.22270000      -0.93530000
H        1.62030000       0.28370000       1.43020000
H        0.27660000      -0.63770000       2.07410000
H        2.44370000      -1.55280000       0.09230000
H        2.18540000      -2.13590000       1.74740000
H        0.07820000      -3.79920000       1.90120000
H       -1.05920000      -2.26500000      -1.19600000
H       -2.71320000      -2.12620000      -0.58560000
H       -1.91560000      -0.26930000       0.97020000
H       -1.97620000       0.09210000      -0.74760000
