20
Properties=species:S:1:pos:R:3 gdb_6178=T pbc="F F F"
C       -0.35290000       1.40710000       0.17120000
C        0.17190000       0.02750000      -0.22440000
O        0.97160000       0.07190000      -1.40360000
C        0.96170000      -0.59980000       0.90940000
O        0.23750000      -1.00950000       2.07360000
C        0.93290000      -2.01830000       1.30820000
C        0.05320000      -3.03680000       0.61730000
C        2.14560000      -2.59720000       2.00710000
H        0.47650000       2.07980000       0.42570000
H       -0.91580000       1.85190000      -0.65390000
H       -1.00240000       1.33120000       1.04790000
H       -0.67500000      -0.61450000      -0.48090000
H        1.65420000       0.73910000      -1.27060000
H        1.88170000      -0.04730000       1.13470000
H       -0.85890000      -2.58770000       0.22290000
H        0.59220000      -3.51480000      -0.20750000
H       -0.23850000      -3.81990000       1.32560000
H        1.83860000      -3.32700000       2.76440000
H        2.79730000      -3.11050000       1.29190000
H        2.72140000      -1.81230000       2.50340000
