18
Properties=species:S:1:pos:R:3 gdb_44388=T pbc="F F F"
O       -0.02600000       0.00180000       0.23450000
C       -0.07270000       1.18460000       0.05800000
C       -1.18690000       2.23290000      -0.14800000
C       -0.05710000       3.28150000      -0.00570000
C        0.29200000       3.98140000       1.31950000
C        1.85370000       4.01590000       1.15810000
C        1.69430000       2.47870000       1.30730000
C        0.54830000       2.80380000       2.31350000
N        0.95690000       2.16250000       0.05360000
H       -1.69230000       2.20960000      -1.11580000
H       -1.93620000       2.21300000       0.64720000
H        0.06880000       3.94240000      -0.86690000
H       -0.28130000       4.86460000       1.59760000
H        2.27020000       4.39110000       0.22010000
H        2.35600000       4.46870000       2.01430000
H        2.51660000       1.80180000       1.52530000
H        0.92410000       3.16330000       3.27280000
H       -0.22690000       2.05160000       2.47680000
