25
Properties=species:S:1:pos:R:3 gdb_116196=T pbc="F F F"
C        0.15460000       1.60550000      -0.43030000
O       -0.28680000       0.27340000      -0.54230000
C        0.66750000      -0.60860000      -1.09610000
C        1.86000000      -0.95030000      -0.17050000
C        2.26360000      -2.40380000      -0.54360000
C        1.26150000      -2.85030000      -1.63780000
C        0.01090000      -1.96610000      -1.44280000
C       -0.84440000      -2.47740000      -0.26840000
C       -0.85360000      -1.86330000      -2.70310000
H        0.99590000       1.70960000       0.27070000
H        0.46810000       2.01290000      -1.40500000
H       -0.68560000       2.19640000      -0.05660000
H        1.05420000      -0.16950000      -2.03320000
H        2.68780000      -0.24620000      -0.28870000
H        1.52740000      -0.88230000       0.87010000
H        3.29560000      -2.46690000      -0.89830000
H        2.19830000      -3.05520000       0.33240000
H        1.68500000      -2.66500000      -2.63250000
H        1.02660000      -3.91800000      -1.58720000
H       -0.25960000      -2.59370000       0.64910000
H       -1.66100000      -1.78450000      -0.05330000
H       -1.27400000      -3.45450000      -0.51400000
H       -1.30480000      -2.82880000      -2.95720000
H       -1.66330000      -1.14140000      -2.55510000
H       -0.26120000      -1.53450000      -3.56470000
