25
Properties=species:S:1:pos:R:3 gdb_115337=T pbc="F F F"
C       -0.29590000       1.65760000      -0.25580000
C       -0.13170000       0.15360000      -0.01460000
C        0.73410000      -0.54070000      -1.06990000
C        2.21340000      -0.06750000      -1.13110000
C        3.04490000      -1.30930000      -1.55610000
C        2.01730000      -2.42950000      -1.84130000
C        2.56170000      -3.84740000      -1.67810000
C        0.84000000      -2.06570000      -0.91420000
O        1.13250000      -2.34450000       0.45420000
H        0.66820000       2.17640000      -0.23240000
H       -0.75380000       1.85730000      -1.23170000
H       -0.93370000       2.11260000       0.50870000
H        0.30660000      -0.02350000       0.97290000
H       -1.12190000      -0.32030000       0.00260000
H        0.27720000      -0.36910000      -2.05480000
H        2.33600000       0.76720000      -1.82660000
H        2.53550000       0.29170000      -0.14870000
H        3.68320000      -1.11600000      -2.42310000
H        3.70390000      -1.61980000      -0.73930000
H        1.64730000      -2.31700000      -2.87000000
H        2.93260000      -4.01180000      -0.65990000
H        1.79770000      -4.60400000      -1.89280000
H        3.40070000      -4.02730000      -2.35800000
H       -0.09180000      -2.57130000      -1.21170000
H        1.18620000      -3.29880000       0.55920000
