17
Properties=species:S:1:pos:R:3 gdb_36056=T pbc="F F F"
C       -0.06830000      -1.18270000       0.28690000
C       -0.00060000       0.00740000       0.14020000
C        0.07750000       1.45050000      -0.03400000
C        1.52050000       1.98860000      -0.13710000
C        1.64380000       3.53660000      -0.00400000
C        2.43650000       3.22440000       1.27780000
O        2.23670000       1.80370000       1.11320000
C        2.23460000       1.41440000      -1.27220000
C        2.82240000       0.97160000      -2.22220000
H       -0.12190000      -2.23490000       0.41760000
H       -0.46490000       1.75300000      -0.93890000
H       -0.40110000       1.95440000       0.81410000
H        2.19890000       4.02270000      -0.80490000
H        0.68970000       4.04560000       0.14460000
H        3.49920000       3.49060000       1.24650000
H        2.00440000       3.58920000       2.21630000
H        3.34240000       0.56340000      -3.05360000
