20
Properties=species:S:1:pos:R:3 gdb_82208=T pbc="F F F"
C        0.06410000       1.53290000       0.01310000
C        0.00770000       0.00200000      -0.01700000
C        0.70930000      -0.62460000      -1.23010000
N        2.14340000      -0.30690000      -1.36170000
C        1.73460000      -1.59740000      -0.76660000
C        1.71060000      -1.59310000       0.74830000
O        2.05970000      -0.34300000       1.34890000
C        0.66530000      -0.65900000       1.21130000
C       -0.10630000      -0.78750000       2.49720000
H        1.10580000       1.85980000       0.02840000
H       -0.42170000       1.96060000      -0.86980000
H       -0.44230000       1.93280000       0.89770000
H       -1.04010000      -0.32610000      -0.04060000
H        0.13120000      -0.78630000      -2.13540000
H        2.42740000      -0.46780000      -2.32580000
H        1.94830000      -2.52340000      -1.28920000
H        2.00720000      -2.48240000       1.29960000
H       -0.37650000       0.19910000       2.89050000
H       -1.03210000      -1.35280000       2.34570000
H        0.49710000      -1.29590000       3.25340000
