21
Properties=species:S:1:pos:R:3 gdb_122399=T pbc="F F F"
C       -0.06380000       1.42490000      -0.24440000
C       -0.03210000      -0.08240000      -0.05810000
O       -1.36250000      -0.55690000       0.00970000
C       -1.45420000      -1.95200000       0.18380000
C       -2.91930000      -2.33600000       0.22490000
C       -3.72380000      -2.14840000      -1.09950000
C       -4.16660000      -3.61500000      -0.98340000
O       -4.97040000      -4.28990000      -1.55690000
C       -3.22820000      -3.86610000       0.21200000
H        0.95340000       1.82360000      -0.30110000
H       -0.59160000       1.68660000      -1.16590000
H       -0.57890000       1.90410000       0.59290000
H        0.50090000      -0.56550000      -0.89490000
H        0.51250000      -0.34790000       0.86390000
H       -0.94900000      -2.47970000      -0.64630000
H       -0.94950000      -2.26310000       1.11530000
H       -3.40230000      -1.82780000       1.06290000
H       -4.52930000      -1.41010000      -1.10620000
H       -3.09080000      -1.97030000      -1.97590000
H       -2.36980000      -4.49010000      -0.06410000
H       -3.69660000      -4.30010000       1.09890000
