11
Properties=species:S:1:pos:R:3 gdb_130550=T pbc="F F F"
O       -0.02940000      -0.03730000       0.00330000
C       -0.03620000       1.17230000       0.00670000
C        1.17370000       1.96530000       0.00060000
C        2.20110000       2.59060000      -0.00470000
C       -1.32170000       1.93690000       0.01740000
N       -1.35570000       3.24760000       0.02110000
O       -2.71190000       3.53560000       0.03090000
C       -3.34550000       2.35330000       0.03210000
N       -2.55870000       1.32950000       0.02400000
H        3.10660000       3.14800000      -0.00940000
H       -4.42520000       2.37600000       0.03940000
