19
Properties=species:S:1:pos:R:3 gdb_112171=T pbc="F F F"
C       -0.08580000       1.61270000       0.15020000
C       -0.11570000       0.09160000      -0.01050000
O       -1.42400000      -0.39560000       0.18700000
C        0.64320000      -0.47570000      -1.27220000
C        0.84480000       0.39430000      -2.50360000
O        1.73100000      -0.20020000      -3.44050000
C        1.89220000      -0.78800000      -0.38450000
C        0.95690000      -0.64420000       0.81420000
O        0.89080000      -1.13630000       1.90680000
H        0.91600000       2.02950000       0.00930000
H       -0.76290000       2.07760000      -0.57210000
H       -0.42750000       1.87430000       1.15560000
H       -1.43230000      -0.83270000       1.04840000
H        0.14230000      -1.40890000      -1.55230000
H       -0.12840000       0.62830000      -2.96260000
H        1.31160000       1.34580000      -2.22940000
H        1.32330000      -1.01170000      -3.76000000
H        2.39650000      -1.74920000      -0.49480000
H        2.64070000       0.01030000      -0.43220000
