12
Properties=species:S:1:pos:R:3 gdb_27973=T pbc="F F F"
O        0.04270000       1.25590000      -0.19850000
C        0.02660000      -0.06680000      -0.07820000
N       -0.09820000      -0.76100000      -1.20940000
C       -0.10850000      -2.08120000      -1.03250000
C       -0.24930000      -2.88720000      -2.30470000
O       -0.27790000      -4.08630000      -2.33870000
N       -0.00810000      -2.72580000       0.13290000
C        0.11120000      -1.91630000       1.18290000
N        0.13570000      -0.58490000       1.14930000
H        0.13760000       1.61890000       0.69420000
H       -0.32360000      -2.24660000      -3.20620000
H        0.19750000      -2.38120000       2.16220000
