20
Properties=species:S:1:pos:R:3 gdb_78984=T pbc="F F F"
C       -0.02860000       1.66430000       0.01740000
C        0.02470000       0.14550000       0.01570000
C        1.04840000      -0.60820000      -0.87860000
C        2.45170000      -0.26960000      -0.34140000
C        2.20880000      -0.27990000       1.12910000
C        0.70800000      -0.62250000       1.18160000
C        1.13100000      -1.75960000       0.18540000
C        0.57700000      -3.14240000       0.08420000
N        2.63610000      -1.54140000       0.43550000
H        0.96610000       2.09020000       0.18470000
H       -0.40210000       2.04950000      -0.93790000
H       -0.69040000       2.03740000       0.80680000
H       -0.97320000      -0.27960000      -0.15220000
H        0.90670000      -0.76240000      -1.94730000
H        3.28250000       0.22410000      -0.83040000
H        2.83700000       0.20500000       1.86600000
H        0.23030000      -0.79080000       2.14570000
H       -0.50330000      -3.12050000      -0.09690000
H        1.05190000      -3.68950000      -0.73760000
H        0.75880000      -3.70020000       1.00940000
