14
Properties=species:S:1:pos:R:3 gdb_54807=T pbc="F F F"
N        0.03990000       1.18320000       0.43430000
C        0.12180000      -0.05200000      -0.13240000
O        1.10160000      -0.48800000      -0.69800000
C       -1.17850000      -0.84250000      -0.03100000
C       -1.07750000      -2.36400000       0.12570000
O       -0.44430000      -2.59420000       1.37640000
C       -1.87290000      -2.37240000       1.38150000
C       -1.98050000      -0.85160000       1.30680000
O       -2.49320000       0.01220000       1.95560000
H        0.87490000       1.74580000       0.46920000
H       -0.73980000       1.42890000       1.02500000
H       -1.86140000      -0.53530000      -0.83310000
H       -1.01040000      -3.12840000      -0.63630000
H       -2.50250000      -3.12290000       1.84220000
