17
Properties=species:S:1:pos:R:3 gdb_126109=T pbc="F F F"
C       -0.02680000       1.56340000       0.02080000
C        0.02050000       0.02540000      -0.03460000
C        0.69680000      -0.48070000      -1.22280000
C        1.26130000      -0.87050000      -2.21510000
C        1.91710000      -1.37460000      -3.36680000
N        2.43410000      -0.55910000      -4.29870000
N        2.95860000      -1.39170000      -5.21130000
C        2.80030000      -2.70340000      -4.90550000
C        2.12500000      -2.73850000      -3.70870000
H        0.98270000       1.98270000       0.02300000
H       -0.55650000       1.96660000      -0.84630000
H       -0.54210000       1.89550000       0.92700000
H        0.52390000      -0.35870000       0.86260000
H       -1.00150000      -0.37470000       0.00110000
H        3.41030000      -0.99760000      -6.01900000
H        3.17160000      -3.48590000      -5.54800000
H        1.81880000      -3.60650000      -3.14940000
