19
Properties=species:S:1:pos:R:3 gdb_90786=T pbc="F F F"
C       -0.04160000       1.54830000      -0.02520000
C        0.01530000       0.02620000       0.03880000
O        0.72780000      -0.50240000      -1.10140000
C        2.01040000      -0.87970000      -0.65160000
C        2.27380000      -0.48660000       0.76630000
C        0.79250000      -0.53090000       1.23860000
C        0.83950000      -2.09430000       1.17420000
C        2.15070000      -1.96540000       0.40170000
O        3.17360000      -2.89490000       0.38860000
H        0.96200000       1.97900000       0.05250000
H       -0.47720000       1.86920000      -0.97540000
H       -0.65480000       1.94970000       0.78900000
H       -0.99870000      -0.39000000      -0.00110000
H        2.78520000      -0.80660000      -1.40610000
H        3.09580000       0.10740000       1.14110000
H        0.53500000      -0.08620000       2.19860000
H        1.01420000      -2.53020000       2.16090000
H       -0.00140000      -2.60140000       0.68720000
H        3.01430000      -3.51080000      -0.33560000
