16
Properties=species:S:1:pos:R:3 gdb_7071=T pbc="F F F"
C        0.11790000       1.74320000       0.11880000
C       -0.07470000       0.24530000      -0.08020000
C        0.49180000      -0.55850000       1.11300000
C        0.47490000      -1.99970000       0.87910000
N        0.46400000      -3.13430000       0.66010000
O       -1.47400000       0.00460000      -0.19470000
C       -1.89680000      -0.93960000      -1.06960000
N       -3.12630000      -1.19800000      -1.15570000
H        1.18030000       1.99090000       0.19680000
H       -0.30730000       2.28830000      -0.72690000
H       -0.38870000       2.07650000       1.02930000
H        0.43200000      -0.07930000      -0.99870000
H        1.52350000      -0.24730000       1.30970000
H       -0.09980000      -0.32900000       2.00550000
H       -1.08380000      -1.39760000      -1.64700000
H       -3.28210000      -1.91660000      -1.85930000
