18
Properties=species:S:1:pos:R:3 gdb_18068=T pbc="F F F"
O       -0.37500000       0.20570000      -0.15770000
C        0.07590000       1.31450000      -0.02650000
C        1.49050000       1.72520000      -0.37380000
C        1.50400000       2.91600000      -1.32000000
C        1.26460000       4.35280000      -0.92810000
C        1.89730000       4.69250000       0.42870000
C        3.28670000       4.23150000      -0.11860000
C        2.63140000       3.90420000      -1.46610000
H       -0.55300000       2.14610000       0.36940000
H        1.99520000       1.97620000       0.56800000
H        2.00760000       0.86400000      -0.80790000
H        1.05130000       2.68490000      -2.28280000
H        0.50260000       4.94620000      -1.41980000
H        1.87810000       5.76370000       0.63880000
H        1.49940000       4.16800000       1.30400000
H        3.99310000       5.06100000      -0.18860000
H        3.78370000       3.40420000       0.39900000
H        3.07780000       4.09500000      -2.43500000
