15
Properties=species:S:1:pos:R:3 gdb_314=T pbc="F F F"
C        0.01660000       1.45540000      -0.03980000
N        0.00650000       0.02000000       0.12030000
C       -1.24660000      -0.64700000       0.52970000
C       -0.38690000      -1.66510000       1.32460000
O       -0.08870000      -2.85870000       0.64120000
C        0.71920000      -0.57850000       1.26790000
H        1.03310000       1.79920000      -0.25940000
H       -0.62330000       1.74150000      -0.88140000
H       -0.34000000       1.99320000       0.86010000
H       -1.87560000      -0.02820000       1.19250000
H       -1.86160000      -1.04030000      -0.28750000
H       -0.74740000      -1.95570000       2.31160000
H        0.23160000      -2.61240000      -0.23440000
H        1.74240000      -0.91470000       1.06580000
H        0.71790000       0.06220000       2.16640000
