16
Properties=species:S:1:pos:R:3 gdb_93478=T pbc="F F F"
O        0.13410000       1.36260000       0.27070000
C        0.03150000      -0.00930000       0.02350000
C       -1.42430000      -0.47520000      -0.00240000
C       -1.44510000      -1.98660000      -0.22740000
C       -0.58620000      -2.46090000      -1.38430000
O       -0.70920000      -3.50690000      -1.94320000
O        0.43700000      -1.62140000      -1.81380000
C        0.68140000      -0.37240000      -1.29440000
N        1.43070000       0.45380000      -1.88110000
H        0.78490000       1.70020000      -0.36520000
H        0.55910000      -0.58440000       0.80830000
H       -1.91030000      -0.21570000       0.94110000
H       -1.95600000       0.05310000      -0.80120000
H       -1.06270000      -2.50660000       0.66150000
H       -2.44950000      -2.37790000      -0.40160000
H        1.80130000       0.08970000      -2.75840000
