19
Properties=species:S:1:pos:R:3 gdb_39388=T pbc="F F F"
C       -0.04210000       1.50220000      -0.14330000
C        1.49170000       1.33090000      -0.02110000
C        1.21650000       0.06590000       0.87720000
C       -0.01890000      -0.01950000      -0.02600000
O       -1.05910000      -0.91930000      -0.32890000
C        0.08210000      -0.83050000      -1.22680000
C        0.11440000      -0.06900000      -2.52890000
C        1.34760000       0.92190000      -2.46780000
O        2.09980000       0.92670000      -1.25180000
H       -0.44760000       1.97030000       0.75780000
H       -0.45970000       1.98960000      -1.02290000
H        2.08210000       2.14140000       0.41310000
H        1.94650000      -0.74320000       0.83150000
H        1.01540000       0.35740000       1.91250000
H        0.71230000      -1.71670000      -1.17640000
H        0.21240000      -0.73320000      -3.39210000
H       -0.81640000       0.48990000      -2.65480000
H        2.08700000       0.63220000      -3.21800000
H        1.01510000       1.93800000      -2.71820000
