22
Properties=species:S:1:pos:R:3 gdb_9966=T pbc="F F F"
C        2.75620000       0.17240000       0.88560000
O        1.62480000      -0.57160000       0.47500000
C        1.58590000      -0.89070000      -0.89180000
C        1.50110000       0.29890000      -1.82480000
C        2.30710000      -2.15400000      -1.33690000
C        3.17250000      -2.96770000      -0.39820000
C        0.78750000      -2.13130000      -1.20360000
C        0.05490000      -2.90020000      -0.12430000
H        3.69580000      -0.30330000       0.57400000
H        2.74040000       1.20000000       0.49710000
H        2.72530000       0.21570000       1.97740000
H        2.41110000       0.90840000      -1.80400000
H        1.35750000      -0.03720000      -2.85540000
H        0.65500000       0.93990000      -1.55320000
H        2.67480000      -2.13250000      -2.36080000
H        2.87320000      -2.83520000       0.64330000
H        3.10990000      -4.03660000      -0.63200000
H        4.22540000      -2.67670000      -0.48280000
H        0.25010000      -2.09160000      -2.14870000
H        0.53490000      -2.78730000       0.84840000
H       -0.97260000      -2.53420000      -0.02480000
H        0.00440000      -3.96770000      -0.36570000
