17
Properties=species:S:1:pos:R:3 gdb_11836=T pbc="F F F"
O        0.11360000       1.33170000      -0.10810000
C        0.09940000      -0.06700000       0.00820000
C        0.24450000      -0.53690000       1.48790000
C       -1.27500000      -0.71670000       1.53460000
C       -2.18120000      -1.33610000       2.51890000
N       -2.20850000       0.12540000       2.28480000
C       -1.37690000      -0.61100000       0.00540000
O       -2.33900000       0.29960000      -0.45810000
H       -0.74090000       1.56060000      -0.50670000
H        0.78830000      -0.53140000      -0.70790000
H        0.79000000      -1.47970000       1.59100000
H        0.67500000       0.20990000       2.15950000
H       -3.07090000      -1.86700000       2.19060000
H       -1.75450000      -1.69760000       3.45130000
H       -1.73390000       0.62740000       3.03030000
H       -1.48440000      -1.57120000      -0.51030000
H       -2.74860000       0.65530000       0.35150000
