20
Properties=species:S:1:pos:R:3 gdb_62069=T pbc="F F F"
C        0.21110000       1.33180000      -0.36760000
C        0.05730000      -0.14610000      -0.00870000
O        0.83070000      -0.56490000       1.09790000
C        2.21750000      -0.70850000       0.84720000
C        2.85130000      -1.38900000       2.02850000
C        4.25480000      -1.06480000       2.38700000
N        3.14730000      -0.63130000       3.25190000
C       -1.38630000      -0.50010000       0.34120000
O       -2.34900000      -0.00670000      -0.18350000
H        1.19620000       1.54440000      -0.79040000
H       -0.55180000       1.60180000      -1.10160000
H        0.06870000       1.95020000       0.52350000
H        0.31060000      -0.76350000      -0.89270000
H        2.37390000      -1.30680000      -0.06680000
H        2.69370000       0.27210000       0.68380000
H        2.47840000      -2.39280000       2.21940000
H        4.89680000      -1.83150000       2.81030000
H        4.77550000      -0.32210000       1.78680000
H        2.94930000       0.35570000       3.10270000
H       -1.46650000      -1.28180000       1.12730000
