15
Properties=species:S:1:pos:R:3 gdb_54744=T pbc="F F F"
C        0.17250000       1.18570000      -0.55680000
C        0.18780000      -0.19950000       0.05630000
O        1.19190000      -0.71750000       0.48210000
C       -1.14120000      -0.91330000       0.08460000
C       -1.39460000      -2.17130000      -0.69950000
O       -0.18940000      -2.94660000      -0.84300000
C       -0.15090000      -3.14330000       0.54690000
O        0.53700000      -3.89060000       1.15040000
C       -1.35100000      -2.25140000       0.80010000
H        1.18680000       1.58290000      -0.59760000
H       -0.25750000       1.15380000      -1.56420000
H       -0.45940000       1.85440000       0.03950000
H       -2.01620000      -0.26820000       0.13030000
H       -2.18650000      -2.33890000      -1.41580000
H       -2.11820000      -2.40300000       1.54510000
