22
Properties=species:S:1:pos:R:3 gdb_38447=T pbc="F F F"
C       -0.18210000       1.27050000      -0.09400000
C        1.12620000       0.62140000       0.12060000
N       -0.13410000      -0.20220000      -0.09350000
C        0.41030000      -0.57740000      -1.44690000
C        1.76870000       0.14740000      -1.18130000
C        2.28760000       1.18400000      -2.21030000
C        3.50230000       0.52740000      -2.92800000
C        3.52910000      -0.93070000      -2.42450000
C        2.94730000      -0.82510000      -1.00940000
H       -0.68770000       1.67690000       0.77700000
H       -0.39260000       1.79360000      -1.02480000
H        1.63100000       0.64380000       1.08340000
H        0.49520000      -1.66350000      -1.53500000
H       -0.19890000      -0.19880000      -2.27600000
H        1.50100000       1.46360000      -2.91720000
H        2.58430000       2.10520000      -1.69780000
H        3.43320000       0.59290000      -4.01710000
H        4.42850000       1.03600000      -2.64060000
H        2.87770000      -1.55930000      -3.04480000
H        4.52760000      -1.37580000      -2.45150000
H        3.69200000      -0.37990000      -0.33480000
H        2.64880000      -1.78420000      -0.57590000
