21
Properties=species:S:1:pos:R:3 gdb_41982=T pbc="F F F"
C       -0.08640000       1.45020000      -0.23970000
O        1.08550000       2.03240000       0.32520000
C        1.89440000       1.04890000       0.99240000
C        1.83400000       1.31300000       2.50310000
C        0.37640000       1.28660000       2.97710000
C       -0.32150000      -0.05070000       2.65810000
C        0.05240000      -0.68590000       1.32460000
C        0.01070000      -0.05190000      -0.05230000
C        1.33510000      -0.32160000       0.61520000
H       -0.97640000       1.88890000       0.23430000
H       -0.12740000       1.69430000      -1.31000000
H        2.92260000       1.15560000       0.62670000
H        2.43410000       0.55430000       3.02330000
H        2.28150000       2.28830000       2.72090000
H        0.32180000       1.46950000       4.05520000
H       -0.14890000       2.11630000       2.49520000
H       -0.04590000      -0.77720000       3.43420000
H       -1.40980000       0.06710000       2.73200000
H       -0.19260000      -1.74520000       1.28940000
H       -0.33370000      -0.67550000      -0.86990000
H        2.02200000      -1.08450000       0.26790000
