12
Properties=species:S:1:pos:R:3 gdb_477=T pbc="F F F"
O       -0.13730000       1.34660000      -0.06810000
C       -0.01900000      -0.04580000      -0.06090000
C       -0.39260000      -0.73610000       1.23680000
O       -0.76850000       0.12510000       2.27130000
C       -1.33300000      -0.79520000       0.04840000
O       -2.47880000      -0.00440000       0.16740000
H       -0.12690000       1.61190000       0.86560000
H        0.78270000      -0.42960000      -0.68430000
H        0.14560000      -1.62030000       1.56430000
H       -1.72240000       0.26510000       2.15840000
H       -1.48690000      -1.72810000      -0.48530000
H       -2.22600000       0.86940000      -0.17120000
