18
Properties=species:S:1:pos:R:3 gdb_28870=T pbc="F F F"
C       -0.12090000       1.51760000       0.04690000
C       -0.03720000       0.01180000      -0.00560000
C        0.06790000      -0.69370000      -1.21460000
C        0.10680000      -0.02140000      -2.56550000
C        0.13850000      -2.08980000      -1.13880000
O        0.24250000      -2.88870000      -2.23830000
C        0.10320000      -2.72040000       0.10570000
N        0.00380000      -2.05300000       1.25040000
C       -0.06380000      -0.72240000       1.18190000
H        0.76250000       1.99380000      -0.39350000
H       -0.99590000       1.89940000      -0.49130000
H       -0.19680000       1.85950000       1.08210000
H        1.03640000      -0.25060000      -3.10390000
H       -0.72810000      -0.34480000      -3.20170000
H        0.04440000       1.06350000      -2.48370000
H        0.25760000      -2.34640000      -3.03270000
H        0.15900000      -3.80500000       0.14960000
H       -0.14470000      -0.19720000       2.13130000
