21
Properties=species:S:1:pos:R:3 gdb_101405=T pbc="F F F"
C        0.03780000       1.49960000       0.24690000
C       -0.05940000      -0.01850000       0.06740000
C       -1.49610000      -0.54020000      -0.11820000
C       -2.15900000      -0.06870000      -1.42090000
C       -1.50360000      -2.06950000      -0.07560000
O       -0.99220000      -2.63710000       1.16110000
C       -2.21330000      -3.33630000       1.47100000
C       -2.84700000      -2.76120000       0.19900000
O       -3.91780000      -2.80110000      -0.32660000
H        1.07410000       1.80280000       0.42510000
H       -0.31540000       2.04170000      -0.63560000
H       -0.55700000       1.83500000       1.10400000
H        0.54410000      -0.32850000      -0.79710000
H        0.37330000      -0.51610000       0.94180000
H       -2.09810000      -0.18680000       0.73140000
H       -3.15410000      -0.50720000      -1.53790000
H       -2.26540000       1.01890000      -1.43740000
H       -1.55860000      -0.35900000      -2.29140000
H       -0.97110000      -2.48000000      -0.94730000
H       -2.09530000      -4.42760000       1.47660000
H       -2.66780000      -3.01570000       2.41690000
