21
Properties=species:S:1:pos:R:3 gdb_108138=T pbc="F F F"
C        0.15590000       1.50160000       0.10450000
C       -0.09870000       0.00690000      -0.13420000
C        0.69300000      -0.52860000      -1.28460000
O        0.39620000      -0.01090000      -2.59200000
C        0.89490000      -1.26020000      -3.18020000
C        2.31150000      -1.00020000      -3.67980000
C        3.05410000      -0.55360000      -2.38710000
C        2.13620000      -1.01160000      -1.25110000
C        1.02290000      -1.90150000      -1.78370000
H        1.20380000       1.68570000       0.36230000
H       -0.07450000       2.07840000      -0.79580000
H       -0.46660000       1.88000000       0.92070000
H        0.15560000      -0.57150000       0.76210000
H       -1.16460000      -0.16220000      -0.33090000
H        0.18440000      -1.67480000      -3.89760000
H        2.73960000      -1.92250000      -4.09010000
H        2.32840000      -0.23860000      -4.46450000
H        4.04130000      -1.01730000      -2.30490000
H        3.19970000       0.53040000      -2.37040000
H        2.54760000      -1.23080000      -0.27140000
H        0.74920000      -2.89500000      -1.45550000
