20
Properties=species:S:1:pos:R:3 gdb_70360=T pbc="F F F"
C       -0.25150000       1.43250000       0.04840000
C        0.13790000      -0.02090000      -0.02580000
N       -0.64790000      -1.03320000       0.71470000
C        0.75210000      -0.78210000       1.10380000
C        1.70050000      -1.85310000       0.58450000
C        1.52560000      -1.83700000      -0.94710000
C        0.37790000      -2.61920000      -1.63050000
O       -0.24380000      -1.39690000      -2.09260000
C        0.68260000      -0.59450000      -1.33450000
H        0.56500000       2.08010000      -0.28990000
H       -1.12100000       1.63700000      -0.58670000
H       -0.50640000       1.72410000       1.07310000
H       -1.27490000      -0.55490000       1.35800000
H        0.95250000      -0.30410000       2.05910000
H        2.73130000      -1.59760000       0.85450000
H        1.48150000      -2.83410000       1.02010000
H        2.47540000      -1.93760000      -1.47410000
H        0.67090000      -3.25990000      -2.47060000
H       -0.27400000      -3.17190000      -0.94660000
H        1.13920000       0.18680000      -1.95350000
