21
Properties=species:S:1:pos:R:3 gdb_121278=T pbc="F F F"
O       -0.06030000       1.45780000      -0.03280000
C        0.02780000       0.04220000       0.01960000
C       -1.39180000      -0.51350000      -0.00500000
C       -1.44720000      -2.04390000      -0.00980000
C       -0.89510000      -2.70190000       1.28150000
O       -1.59370000      -3.93070000       1.46490000
C       -2.84250000      -3.81640000       0.83110000
C       -3.70820000      -2.62440000       1.14770000
C       -2.84440000      -2.64710000      -0.10590000
H        0.83150000       1.81650000      -0.01050000
H        0.59470000      -0.35470000      -0.83930000
H        0.55000000      -0.28760000       0.93260000
H       -1.94030000      -0.12090000       0.85960000
H       -1.89360000      -0.12150000      -0.89720000
H       -0.87430000      -2.41620000      -0.87010000
H        0.17320000      -2.93100000       1.23490000
H       -1.05750000      -2.03640000       2.14340000
H       -3.27510000      -4.78450000       0.60880000
H       -4.77790000      -2.73780000       1.00830000
H       -3.43570000      -1.97830000       1.97530000
H       -3.32470000      -2.68520000      -1.07680000
