18
Properties=species:S:1:pos:R:3 gdb_115437=T pbc="F F F"
O        0.30210000       1.12220000       0.46140000
C       -0.00690000      -0.18190000       0.02550000
C       -1.51360000      -0.40110000      -0.08030000
C       -1.92470000      -1.85900000      -0.36200000
C       -2.34980000      -2.38730000       1.01870000
C       -2.89510000      -1.11240000       1.68610000
O       -2.07560000      -0.05910000       1.21320000
C       -4.31480000      -0.87460000       1.33690000
N       -5.42210000      -0.69710000       1.05840000
H       -0.22370000       1.27250000       1.25610000
H        0.45170000      -0.30860000      -0.96140000
H        0.42120000      -0.94850000       0.69470000
H       -1.92880000       0.29550000      -0.81680000
H       -2.76490000      -1.89430000      -1.05980000
H       -1.10570000      -2.43930000      -0.79460000
H       -3.08410000      -3.19290000       0.97220000
H       -1.48700000      -2.73590000       1.59280000
H       -2.81740000      -1.13790000       2.77740000
