16
Properties=species:S:1:pos:R:3 gdb_65451=T pbc="F F F"
N       -0.53150000       1.36360000      -0.15190000
C       -0.22750000      -0.04030000      -0.08380000
C       -0.88760000      -0.87670000       1.00630000
C       -1.24810000      -1.13900000      -0.42480000
O       -2.47890000      -0.86550000      -1.05800000
C       -3.48850000      -0.14160000      -0.55820000
N       -3.45050000       0.58900000       0.47580000
C        1.14150000      -0.35880000      -0.42870000
N        2.22230000      -0.63890000      -0.73130000
H       -0.56870000       1.67060000      -1.11950000
H       -1.44240000       1.53320000       0.26490000
H       -0.29190000      -1.63260000       1.50460000
H       -1.59070000      -0.34470000       1.62990000
H       -0.85490000      -2.04060000      -0.87930000
H       -4.35270000      -0.28230000      -1.21420000
H       -4.35660000       1.02330000       0.63330000
