19
Properties=species:S:1:pos:R:3 gdb_89862=T pbc="F F F"
C       -0.71340000       1.29880000       0.29260000
C        0.00310000      -0.01760000       0.07730000
C        0.77580000      -0.21820000      -1.25020000
C        1.99480000      -0.29340000      -0.34720000
C        3.19850000      -1.15950000      -0.39920000
C        3.34940000       0.36640000      -0.52720000
C        3.68860000       0.96620000      -1.77980000
C        3.93940000       1.46890000      -2.84470000
O        1.24390000      -0.10250000       0.84220000
H       -0.07120000       2.14060000       0.01640000
H       -1.62410000       1.34000000      -0.31520000
H       -0.99810000       1.41200000       1.34330000
H       -0.64810000      -0.86040000       0.33880000
H        0.53910000      -1.13000000      -1.80120000
H        0.76350000       0.63550000      -1.93100000
H        3.54030000      -1.59710000       0.53250000
H        3.37240000      -1.75650000      -1.28780000
H        3.72540000       0.86570000       0.36150000
H        4.17840000       1.91270000      -3.77890000
