14
Properties=species:S:1:pos:R:3 gdb_123693=T pbc="F F F"
C       -0.06190000       1.51640000       0.00460000
C        1.43670000       1.88320000      -0.03140000
O        2.17890000       1.46470000       1.11180000
C        2.28840000       0.66470000      -0.08600000
C        1.32870000      -0.45960000      -0.06580000
N        1.32840000      -1.78560000      -0.06620000
N        0.02150000      -2.05420000       0.03000000
N       -0.82020000      -1.01210000       0.09110000
C        0.01330000       0.01580000       0.02340000
H       -0.54850000       1.94060000       0.88840000
H       -0.57950000       1.90340000      -0.88000000
H        1.74670000       2.83050000      -0.46470000
H        3.26980000       0.62380000      -0.54490000
H       -0.31900000      -3.00180000       0.03210000
