18
Properties=species:S:1:pos:R:3 gdb_47023=T pbc="F F F"
O        0.02060000      -0.05080000       0.12620000
C       -0.01200000       1.16480000       0.04100000
N       -1.20800000       1.85090000      -0.08950000
C       -1.35440000       3.28460000       0.16950000
C       -0.21550000       3.99270000      -0.55160000
C        0.47280000       5.29140000      -0.01600000
C        1.86290000       4.59190000      -0.21550000
C        1.09640000       3.29140000      -0.29370000
C        1.21090000       2.01380000       0.05570000
H       -2.01410000       1.25850000       0.04620000
H       -2.33860000       3.60400000      -0.18640000
H       -1.30360000       3.50570000       1.24820000
H       -0.42620000       4.07280000      -1.62510000
H        0.29480000       6.21380000      -0.57120000
H        0.25430000       5.45840000       1.04180000
H        2.32200000       4.86940000      -1.17060000
H        2.61290000       4.69110000       0.57260000
H        2.13290000       1.53030000       0.35730000
