16
Properties=species:S:1:pos:R:3 gdb_30457=T pbc="F F F"
C       -0.04380000       1.41870000       0.11690000
N        0.06810000      -0.02360000       0.05430000
C        0.58470000      -0.56610000      -0.97820000
N        0.66850000      -1.97440000      -0.98530000
C        1.18950000      -2.70260000      -2.00430000
C        1.66990000      -2.06020000      -3.10340000
O        2.20220000      -2.76800000      -4.14840000
C        1.57820000      -0.63480000      -3.08180000
N        1.08240000       0.07250000      -2.11400000
H        0.49240000       1.79070000       0.99980000
H        0.34320000       1.93570000      -0.76850000
H       -1.09640000       1.69990000       0.25250000
H        0.30550000      -2.42520000      -0.15890000
H        1.20080000      -3.77990000      -1.89760000
H        2.48670000      -2.15150000      -4.83030000
H        1.95450000      -0.08150000      -3.94900000
