18
Properties=species:S:1:pos:R:3 gdb_20097=T pbc="F F F"
C       -0.33350000       1.27820000      -0.24600000
C        1.08730000       1.18930000       0.24530000
C        0.28490000      -0.07280000       0.00800000
C       -0.15370000      -0.88900000       1.16240000
C        0.48180000      -2.18200000       1.71460000
C       -0.93080000      -2.59300000       2.26050000
C       -1.48020000      -1.28300000       1.68380000
O       -0.73230000      -0.21530000       2.29020000
H       -1.08120000       1.61460000       0.46220000
H       -0.50970000       1.56910000      -1.27540000
H        1.89300000       1.41840000      -0.44310000
H        1.27530000       1.46930000       1.27560000
H        0.55900000      -0.66040000      -0.86370000
H        0.83820000      -2.85420000       0.93000000
H        1.27400000      -2.02800000       2.45110000
H       -1.32970000      -3.48330000       1.76850000
H       -1.03020000      -2.69860000       3.34330000
H       -2.48010000      -1.04360000       1.33930000
