21
Properties=species:S:1:pos:R:3 gdb_86069=T pbc="F F F"
C       -0.73460000       1.29750000      -0.01740000
C        0.18860000       0.08120000       0.00820000
C        1.19310000       0.00700000      -1.16900000
C        2.39290000      -0.70910000      -0.59070000
C        3.46140000      -1.24240000      -1.49010000
C        2.32590000      -0.72550000       0.75820000
C        1.08260000      -0.02930000       1.26820000
C        3.31480000      -1.29010000       1.67260000
O        3.21920000      -1.24150000       2.88260000
H       -0.15760000       2.22890000       0.02080000
H       -1.34380000       1.31930000      -0.92740000
H       -1.41670000       1.29420000       0.83910000
H       -0.42760000      -0.82580000      -0.03600000
H        0.78650000      -0.49620000      -2.05460000
H        1.49450000       1.01280000      -1.50340000
H        3.87270000      -0.43660000      -2.11160000
H        4.28720000      -1.71150000      -0.95310000
H        3.04080000      -1.98030000      -2.18480000
H        1.33970000       0.96280000       1.66590000
H        0.60680000      -0.57220000       2.08970000
H        4.18820000      -1.78790000       1.19900000
