17
Properties=species:S:1:pos:R:3 gdb_70064=T pbc="F F F"
O       -0.06390000       1.44900000       0.26100000
C        0.05660000       0.08100000       0.02660000
C       -0.49900000      -0.80400000       1.10270000
C        0.99800000      -0.84480000       0.85990000
N        1.41000000      -1.98830000       0.05200000
C        0.98480000      -1.70780000      -1.11590000
N        0.50140000      -2.38010000      -2.23940000
C       -0.63190000      -1.38690000      -2.29050000
C        0.23530000      -0.43130000      -1.38530000
H        0.72550000       1.88400000      -0.08100000
H       -0.84060000      -0.26260000       1.97840000
H       -1.07510000      -1.68990000       0.85410000
H        1.67710000      -0.46800000       1.61620000
H        0.31330000      -3.37450000      -2.17500000
H       -0.86320000      -1.03670000      -3.29800000
H       -1.53620000      -1.74370000      -1.78760000
H        0.76930000       0.29730000      -2.00330000
