22
Properties=species:S:1:pos:R:3 gdb_91910=T pbc="F F F"
C       -0.02380000       1.57350000       0.01530000
C        0.02690000       0.04690000      -0.02620000
C        0.55540000      -0.49260000      -1.36810000
C        0.69270000      -2.01430000      -1.31370000
O        1.12980000      -2.57270000      -2.54580000
C        1.72990000      -2.41100000      -0.26310000
C        1.55380000      -1.66620000       1.06200000
C        2.18600000      -0.32610000       1.24650000
N        0.73600000      -0.45110000       1.16100000
H        0.97660000       2.00300000      -0.10510000
H       -0.65660000       1.96190000      -0.78880000
H       -0.42690000       1.91510000       0.97250000
H       -1.00070000      -0.32910000       0.08460000
H       -0.14470000      -0.20390000      -2.16330000
H        1.52600000      -0.05020000      -1.62680000
H       -0.28590000      -2.43970000      -1.03090000
H        0.48940000      -2.33310000      -3.22340000
H        1.67820000      -3.48960000      -0.09130000
H        2.71780000      -2.21030000      -0.69310000
H        1.46140000      -2.30690000       1.93630000
H        2.57080000      -0.01220000       2.21400000
H        2.73940000       0.06980000       0.39600000
