14
Properties=species:S:1:pos:R:3 gdb_125801=T pbc="F F F"
C        0.04560000       1.53070000      -0.01900000
C        0.01420000       0.04060000       0.06250000
N        0.13060000      -0.67410000      -1.05640000
O        0.05310000      -2.06530000      -0.67670000
C       -0.09390000      -2.05610000       0.62730000
C       -0.12090000      -0.82740000       1.16310000
O       -0.36700000      -0.91470000       2.52500000
C       -0.17760000      -2.31570000       2.77730000
O       -0.27850000      -3.05250000       1.51240000
H        0.87000000       1.93610000       0.57590000
H        0.17190000       1.84170000      -1.05740000
H       -0.88380000       1.96030000       0.36810000
H        0.82950000      -2.49030000       3.17990000
H       -0.95530000      -2.67720000       3.45100000
