15
Properties=species:S:1:pos:R:3 gdb_11777=T pbc="F F F"
O        0.02270000      -0.09340000       0.21620000
C        0.07610000       1.04760000      -0.16900000
C        1.30850000       1.88570000      -0.10880000
C        1.56900000       2.85110000       1.11750000
C        3.00840000       2.66290000       0.54320000
N        2.64720000       1.22750000       0.17070000
C        2.85880000       3.32210000      -0.83480000
C        1.70650000       2.81280000      -1.27170000
H       -0.82370000       1.56880000      -0.56950000
H        1.11520000       3.84570000       1.10240000
H        1.41550000       2.35380000       2.08070000
H        3.91160000       2.83310000       1.12720000
H        2.53480000       0.69030000       1.03560000
H        3.54760000       4.00860000      -1.30400000
H        1.16820000       2.95100000      -2.19740000
