18
Properties=species:S:1:pos:R:3 gdb_51202=T pbc="F F F"
O       -0.58760000       0.72120000       0.70220000
C        0.09100000       1.01760000      -0.24690000
C        1.33110000       1.89110000      -0.17280000
C        1.28940000       3.01430000      -1.17860000
C        0.24980000       4.13370000      -1.33590000
C        1.19190000       4.26310000      -2.53230000
C        2.46870000       3.88940000      -1.72300000
C        2.78100000       2.81290000      -2.75410000
N        1.25820000       2.72230000      -2.71760000
H       -0.15070000       0.65860000      -1.27040000
H        1.43210000       2.27640000       0.84640000
H        2.19970000       1.24980000      -0.38270000
H       -0.77370000       3.81830000      -1.55740000
H        0.27540000       4.93580000      -0.59410000
H        1.13130000       4.91300000      -3.40620000
H        3.12720000       4.55520000      -1.15480000
H        3.17080000       3.13020000      -3.72650000
H        3.28810000       1.89980000      -2.42520000
