21
Properties=species:S:1:pos:R:3 gdb_97769=T pbc="F F F"
C       -0.25820000       1.52210000       0.18600000
C       -0.01530000       0.03250000       0.05620000
C       -1.20370000      -0.75820000      -0.45630000
C        1.35810000      -0.43940000      -0.32510000
C        0.86230000      -0.66560000       1.10210000
C        1.44800000       0.04840000       2.19630000
C        1.94580000       0.64570000       3.11980000
C        2.49660000       1.35880000       4.26950000
O        1.57190000       2.24350000       4.89250000
H        0.60820000       2.03660000       0.60750000
H       -0.47620000       1.96130000      -0.79430000
H       -1.11460000       1.72390000       0.83950000
H       -1.49430000      -0.41680000      -1.45680000
H       -0.97910000      -1.82750000      -0.52250000
H       -2.07210000      -0.63650000       0.20120000
H        1.45520000      -1.31560000      -0.95760000
H        2.13760000       0.30260000      -0.45670000
H        0.56930000      -1.68650000       1.33360000
H        2.89520000       0.62740000       4.99150000
H        3.34120000       1.98530000       3.96070000
H        0.75850000       1.74840000       5.03480000
