21
Properties=species:S:1:pos:R:3 gdb_120822=T pbc="F F F"
C       -0.01490000       1.50050000      -0.25610000
C       -0.21170000       0.00920000      -0.46360000
O        1.05650000      -0.57750000      -0.72440000
C        1.00300000      -1.95050000      -0.92960000
C        0.64850000      -2.47560000      -2.29980000
C        2.07970000      -2.54750000      -1.78740000
C        3.15930000      -1.66560000      -2.38620000
C        3.64380000      -2.18500000      -3.72210000
O        4.79870000      -2.34770000      -4.02200000
H        0.65980000       1.68620000       0.58420000
H        0.41710000       1.96000000      -1.14990000
H       -0.97340000       1.98440000      -0.04640000
H       -0.65850000      -0.45220000       0.43180000
H       -0.89560000      -0.18500000      -1.30400000
H        0.67050000      -2.52150000      -0.06140000
H        0.07410000      -3.39080000      -2.38910000
H        0.43440000      -1.72880000      -3.05760000
H        2.42290000      -3.53230000      -1.48270000
H        2.74590000      -0.66080000      -2.54160000
H        4.02000000      -1.56850000      -1.71770000
H        2.82670000      -2.41870000      -4.44410000
