21
Properties=species:S:1:pos:R:3 gdb_105693=T pbc="F F F"
C       -1.42290000       0.07300000      -0.15520000
O       -0.01170000       0.04300000      -0.04480000
C        0.64040000      -0.69210000      -1.04720000
C        0.68430000      -0.01640000      -2.40640000
C        1.38450000       1.35440000      -2.34620000
C        1.23270000       2.12560000      -3.63340000
O        2.13900000       2.56210000      -4.29530000
C        1.83600000      -1.45140000      -0.55770000
C        0.57350000      -2.19620000      -0.94870000
H       -1.76330000       0.62780000      -1.04100000
H       -1.84710000      -0.93950000      -0.19650000
H       -1.79760000       0.58130000       0.73630000
H        1.20300000      -0.67150000      -3.11450000
H       -0.33560000       0.10660000      -2.79450000
H        0.91710000       1.93980000      -1.54240000
H        2.44830000       1.25160000      -2.11610000
H        0.17230000       2.27100000      -3.95400000
H        2.70370000      -1.52330000      -1.20460000
H        2.05770000      -1.37410000       0.50010000
H       -0.02030000      -2.61350000      -0.14330000
H        0.57420000      -2.78170000      -1.86190000
