17
Properties=species:S:1:pos:R:3 gdb_48784=T pbc="F F F"
O       -0.80700000       0.96270000       0.42090000
C        0.22810000       0.93820000      -0.19650000
C        1.37210000       1.85260000       0.05620000
O        2.26930000       2.02260000      -1.06150000
C        2.77270000       1.33930000       0.07900000
C        3.57980000       2.18010000       1.05980000
C        2.63500000       3.27270000       1.57060000
C        2.04510000       4.26340000       0.60190000
C        1.25360000       3.03540000       0.98120000
H        0.41810000       0.21160000      -1.01650000
H        3.03060000       0.29530000      -0.09130000
H        3.89560000       1.53680000       1.88870000
H        4.48780000       2.57460000       0.59020000
H        2.74480000       3.58340000       2.60350000
H        1.70860000       5.20910000       1.01260000
H        2.44100000       4.31480000      -0.40480000
H        0.34030000       3.11260000       1.55580000
