18
Properties=species:S:1:pos:R:3 gdb_131805=T pbc="F F F"
O       -0.02620000       1.44560000      -0.18750000
C        0.04570000       0.04120000      -0.00410000
C       -1.37490000      -0.50660000      -0.04290000
C       -1.42470000      -2.03360000       0.13860000
C       -2.81570000      -2.58970000       0.08420000
C       -3.57140000      -3.12060000       1.08210000
O       -4.77770000      -3.49660000       0.63000000
N       -4.85370000      -3.21380000      -0.72920000
C       -3.69740000      -2.68180000      -1.03500000
H        0.86730000       1.79990000      -0.16360000
H        0.64960000      -0.43560000      -0.79440000
H        0.51660000      -0.21350000       0.96010000
H       -1.96560000      -0.01890000       0.74040000
H       -1.83170000      -0.22500000      -0.99860000
H       -0.80980000      -2.50970000      -0.63640000
H       -0.96780000      -2.30390000       1.09790000
H       -3.38840000      -3.29390000       2.13170000
H       -3.51750000      -2.37730000      -2.05720000
