25
Properties=species:S:1:pos:R:3 gdb_121563=T pbc="F F F"
C       -0.54050000       1.43560000       0.31510000
C        0.04650000       0.05390000       0.01460000
C        0.76140000      -0.56700000       1.21820000
C        1.35050000      -1.95820000       0.90980000
C        2.03470000      -2.56160000       2.04870000
C        2.60040000      -3.03030000       3.00390000
C        3.26120000      -3.62830000       4.15910000
C        2.43090000      -4.74140000       4.83030000
C        3.14280000      -5.35310000       6.03830000
H        0.24170000       2.14020000       0.61860000
H       -1.04450000       1.85500000      -0.56130000
H       -1.27270000       1.38600000       1.12860000
H       -0.75380000      -0.62010000      -0.31950000
H        0.74940000       0.12860000      -0.82600000
H        1.56880000       0.09460000       1.55470000
H        0.06540000      -0.65440000       2.06140000
H        0.54500000      -2.62350000       0.56950000
H        2.04610000      -1.87600000       0.06320000
H        4.23480000      -4.03820000       3.85670000
H        3.48420000      -2.84900000       4.90110000
H        1.46290000      -4.32630000       5.13280000
H        2.21410000      -5.51710000       4.08720000
H        4.10260000      -5.79740000       5.75130000
H        3.34540000      -4.59710000       6.80540000
H        2.53720000      -6.13960000       6.49870000
