19
Properties=species:S:1:pos:R:3 gdb_73042=T pbc="F F F"
C       -0.11620000       1.44550000       0.11170000
C       -0.04470000      -0.04770000      -0.01880000
C       -0.87200000      -0.86830000      -1.01470000
C       -1.13640000      -1.85420000       0.14790000
N       -0.37450000      -1.00710000       1.13330000
C        1.00490000      -0.86970000       0.62370000
C        1.79730000      -1.97610000      -0.06150000
C        2.19490000      -3.04010000       0.86230000
N        2.50980000      -3.87730000       1.59350000
H        0.40920000       1.93380000      -0.71780000
H       -1.15530000       1.79150000       0.10050000
H        0.34220000       1.77840000       1.04710000
H       -1.77450000      -0.34250000      -1.33260000
H       -0.35890000      -1.23370000      -1.91020000
H       -2.18280000      -1.89900000       0.45300000
H       -0.76360000      -2.87850000       0.05060000
H        1.60790000      -0.33390000       1.35380000
H        1.24710000      -2.42650000      -0.89140000
H        2.70530000      -1.53950000      -0.49400000
