15
Properties=species:S:1:pos:R:3 gdb_85353=T pbc="F F F"
O        0.11920000       1.37930000       0.14180000
C        0.01950000      -0.02610000       0.02770000
C       -1.44890000      -0.45460000      -0.11040000
C       -1.49490000      -1.40260000      -1.31450000
O       -2.42570000      -2.08320000      -1.66880000
C       -0.15720000      -1.32610000      -1.97300000
C        0.66750000      -0.55630000      -1.24740000
C        2.05500000      -0.20830000      -1.58960000
O        2.71710000       0.56670000      -0.93020000
H        1.06330000       1.58700000       0.13390000
H        0.49080000      -0.51880000       0.89300000
H       -1.87130000      -0.92990000       0.77680000
H       -2.05240000       0.43120000      -0.33500000
H        0.06790000      -1.83430000      -2.90390000
H        2.47080000      -0.68970000      -2.49810000
