19
Properties=species:S:1:pos:R:3 gdb_51635=T pbc="F F F"
O       -0.01980000       0.05310000       0.73550000
C       -0.01030000       1.15110000       0.22100000
N        1.09030000       1.78260000      -0.27330000
C        2.41920000       1.20400000      -0.25030000
C        3.17880000       1.24610000      -1.62780000
N        4.42640000       1.99220000      -1.30240000
C        4.76720000       1.34230000       0.03100000
C        3.46780000       1.99820000       0.55690000
C        3.85330000       3.10950000      -0.45210000
H       -0.92360000       1.76630000       0.09460000
H        0.96090000       2.69560000      -0.68070000
H        2.29030000       0.19210000       0.13450000
H        3.42560000       0.25270000      -2.00890000
H        2.60980000       1.77930000      -2.39490000
H        4.84130000       0.25100000       0.00840000
H        5.68290000       1.77610000       0.43820000
H        3.25490000       2.17400000       1.61220000
H        4.65470000       3.76420000      -0.10340000
H        3.07410000       3.70870000      -0.93550000
