16
Properties=species:S:1:pos:R:3 gdb_85783=T pbc="F F F"
N       -0.04710000       1.34620000      -0.53550000
C        0.10490000       0.02010000      -0.17490000
O        1.17220000      -0.53490000      -0.03330000
N       -1.09940000      -0.63920000       0.04970000
C       -1.30680000      -2.05330000       0.41000000
C       -2.82340000      -1.72000000       0.54330000
O       -3.38150000      -2.00570000       1.79580000
C       -2.42210000      -0.26190000       0.31970000
N       -3.08290000       0.80400000       0.46440000
H        0.81330000       1.77050000      -0.84940000
H       -0.86310000       1.59530000      -1.07470000
H       -1.01700000      -2.75580000      -0.37320000
H       -0.84870000      -2.32560000       1.36280000
H       -3.42320000      -2.12930000      -0.28090000
H       -3.99210000      -1.28780000       2.00210000
H       -2.51310000       1.64570000       0.37730000
