16
Properties=species:S:1:pos:R:3 gdb_125610=T pbc="F F F"
C       -0.04920000       1.49990000      -0.02350000
C       -0.01830000       0.00730000       0.03160000
N       -0.02110000      -0.73680000      -1.08050000
N        0.00310000      -1.99880000      -0.67310000
C        0.02520000      -2.12630000       0.69240000
C        0.05580000      -3.42250000       1.32200000
O        0.06530000      -4.47490000       0.70880000
C        0.01190000      -0.81740000       1.18490000
N       -0.04240000      -0.38390000       2.50200000
H        0.83030000       1.94550000       0.45890000
H       -0.06380000       1.82980000      -1.06400000
H       -0.93600000       1.90500000       0.47810000
H        0.00540000      -2.76220000      -1.32930000
H        0.07090000      -3.40620000       2.43390000
H        0.31740000      -1.03200000       3.18740000
H        0.33470000       0.54200000       2.64720000
