19
Properties=species:S:1:pos:R:3 gdb_32217=T pbc="F F F"
C       -0.00770000       1.53840000       0.10070000
C       -0.05180000       0.00490000      -0.03940000
C        0.70550000      -0.49900000      -1.24650000
N       -0.00700000      -0.70260000      -2.35660000
C        0.60660000      -1.14160000      -3.45760000
C        1.97100000      -1.40250000      -3.50350000
C        2.72490000      -1.18850000      -2.35810000
C        2.10020000      -0.72510000      -1.19780000
N        2.82340000      -0.55750000      -0.01350000
H        1.01740000       1.91430000       0.19840000
H       -0.44560000       2.01180000      -0.78280000
H       -0.56900000       1.86840000       0.98040000
H        0.33600000      -0.46640000       0.87230000
H       -1.09120000      -0.31400000      -0.15060000
H       -0.02040000      -1.29340000      -4.33220000
H        2.43550000      -1.76150000      -4.41540000
H        3.79490000      -1.37880000      -2.35410000
H        3.82120000      -0.47130000      -0.14520000
H        2.47600000       0.15770000       0.60710000
