16
Properties=species:S:1:pos:R:3 gdb_69223=T pbc="F F F"
C       -0.08940000       1.51980000       0.02370000
C        0.13920000       0.04020000      -0.00170000
O       -0.69900000      -0.79260000       0.82340000
C        0.71590000      -0.79870000       1.06520000
C        1.38910000      -1.97110000       0.41450000
N        2.07460000      -2.84110000       1.03240000
N        1.10950000      -1.84540000      -0.94960000
C        0.44700000      -0.66780000      -1.30080000
N        0.14830000      -0.20760000      -2.44430000
H        0.79960000       2.05270000      -0.32510000
H       -0.91620000       1.77930000      -0.64240000
H       -0.32960000       1.84500000       1.03820000
H        1.05530000      -0.44240000       2.03070000
H        2.46050000      -3.54610000       0.40080000
H        1.33350000      -2.56460000      -1.62000000
H        0.44300000      -0.82720000      -3.20150000
