15
Properties=species:S:1:pos:R:3 gdb_124000=T pbc="F F F"
C        0.07010000       1.46620000       0.30720000
N        1.14740000       2.13690000      -0.44210000
C        2.16190000       1.37950000      -0.91580000
C        2.12360000       0.01270000      -1.07760000
C        3.37950000      -0.25230000      -1.67080000
N        4.11380000       0.82230000      -1.84810000
O        3.30100000       1.89970000      -1.34760000
C        0.91290000      -0.68090000      -0.69760000
C       -0.06240000       0.00650000      -0.08430000
H        0.24220000       1.54880000       1.39670000
H       -0.86750000       1.99830000       0.10460000
H        1.33630000       3.10510000      -0.23630000
H        3.79260000      -1.20300000      -1.98150000
H        0.78870000      -1.73350000      -0.92890000
H       -0.98800000      -0.47610000       0.20870000
