17
Properties=species:S:1:pos:R:3 gdb_111726=T pbc="F F F"
O        0.02760000       1.31760000       0.34050000
C        0.02970000      -0.00640000      -0.16930000
C       -1.34760000      -0.62890000      -0.11110000
C       -1.65050000      -2.11020000      -0.14090000
C       -0.64880000      -2.88730000       0.70320000
O       -0.82280000      -1.98490000       1.82880000
C       -1.88190000      -1.29740000       1.13640000
C       -3.04970000      -0.92160000       1.85120000
C       -4.03310000      -0.58890000       2.45960000
H       -0.20880000       1.26560000       1.27270000
H        0.35450000       0.07460000      -1.21200000
H        0.75640000      -0.63520000       0.35990000
H       -2.11220000      -0.04540000      -0.61870000
H       -2.38000000      -2.54420000      -0.81080000
H       -1.00160000      -3.89070000       0.96440000
H        0.39130000      -2.93740000       0.36430000
H       -4.90160000      -0.29920000       2.99770000
