18
Properties=species:S:1:pos:R:3 gdb_19052=T pbc="F F F"
C       -0.26170000       1.55930000       0.00400000
C        0.03740000       0.06270000      -0.01700000
O        0.70910000      -0.32480000      -1.23190000
C        1.99870000      -0.80700000      -0.88770000
C        2.89590000       0.32190000      -0.28690000
C        2.42460000      -0.12950000       1.09810000
C        1.90100000      -1.44300000       0.52490000
C        0.93610000      -0.45740000       1.10000000
H        0.65460000       2.15340000       0.04480000
H       -0.82190000       1.84630000      -0.89050000
H       -0.86960000       1.80780000       0.88110000
H       -0.91760000      -0.48270000       0.01190000
H        2.39020000      -1.38250000      -1.72540000
H        3.95890000       0.10140000      -0.42530000
H        2.68960000       1.34100000      -0.62710000
H        2.95080000       0.02690000       2.03280000
H        2.03980000      -2.47160000       0.82770000
H        0.49310000      -0.65590000       2.06940000
