21
Properties=species:S:1:pos:R:3 gdb_59744=T pbc="F F F"
C        0.31970000       1.55700000       0.22820000
C       -0.01130000       0.07300000       0.05680000
O       -1.40990000      -0.17160000       0.16130000
C        0.54710000      -0.52320000      -1.25220000
C        0.64440000      -2.05750000      -1.30730000
C        0.70380000      -2.38130000      -2.81530000
C       -0.27160000      -1.37560000      -3.44930000
C       -0.31080000      -0.19090000      -2.48110000
O       -0.96820000       0.81280000      -2.63190000
H        1.40280000       1.71620000       0.26720000
H       -0.08200000       2.13790000      -0.60670000
H       -0.11690000       1.92830000       1.15940000
H        0.42900000      -0.48750000       0.89070000
H       -1.83480000       0.38760000      -0.50130000
H        1.54360000      -0.09790000      -1.44930000
H        1.50250000      -2.44830000      -0.75460000
H       -0.26280000      -2.48190000      -0.86090000
H        1.71920000      -2.21030000      -3.19110000
H        0.44830000      -3.42030000      -3.03620000
H       -0.01200000      -1.04640000      -4.45920000
H       -1.29140000      -1.77720000      -3.50240000
