21
Properties=species:S:1:pos:R:3 gdb_120228=T pbc="F F F"
O       -1.20660000       1.39790000       1.48500000
C       -1.35210000      -0.01390000       1.49430000
C       -1.26010000      -0.50020000       0.05100000
C       -1.37050000      -2.01590000      -0.06030000
C       -2.79220000      -2.68270000       0.05490000
C       -2.99010000      -2.33510000      -1.45550000
C       -1.47930000      -2.66570000      -1.47000000
O       -1.45040000      -4.07250000      -1.17350000
C       -2.38850000      -4.15650000      -0.07220000
H       -1.25950000       1.71260000       2.39190000
H       -0.56410000      -0.49320000       2.09830000
H       -2.32010000      -0.31200000       1.92840000
H       -2.03010000       0.01650000      -0.52990000
H       -0.29450000      -0.17410000      -0.35540000
H       -0.59830000      -2.48700000       0.55980000
H       -3.51690000      -2.42010000       0.82540000
H       -3.63950000      -2.98180000      -2.05030000
H       -3.22410000      -1.28730000      -1.63650000
H       -0.80460000      -2.45050000      -2.29790000
H       -1.88740000      -4.55270000       0.81900000
H       -3.22140000      -4.81890000      -0.33700000
