12
Properties=species:S:1:pos:R:3 gdb_25220=T pbc="F F F"
O        0.11850000      -0.12980000       0.04220000
C        0.05530000       1.04790000      -0.08740000
O       -1.20100000       1.60410000      -0.35590000
C       -1.51600000       2.84800000      -0.77810000
N       -0.82580000       3.74570000      -1.34740000
C        0.53550000       3.72340000      -1.56120000
C        1.48900000       3.03340000      -0.89980000
C        1.28340000       1.97320000       0.08350000
O        2.09080000       1.66450000       0.92890000
H       -2.57590000       3.01660000      -0.60480000
H        0.85330000       4.45480000      -2.30010000
H        2.53150000       3.27010000      -1.08770000
