18
Properties=species:S:1:pos:R:3 gdb_79722=T pbc="F F F"
C       -0.46660000       1.53040000       0.18850000
C        0.00390000       0.09240000       0.05860000
N        0.56850000      -0.42400000      -1.24140000
C        1.52700000       0.42660000      -1.99250000
C        2.57210000       1.17360000      -1.19460000
C        2.73710000      -0.30250000      -1.41360000
C        1.73430000      -1.08080000      -0.54620000
C        1.26290000      -0.44160000       0.79060000
O        1.69110000      -0.37180000       1.90300000
H        0.30240000       2.24930000      -0.09840000
H       -1.34340000       1.69910000      -0.44430000
H       -0.75340000       1.72900000       1.22560000
H       -0.82790000      -0.57600000       0.32610000
H        1.30230000       0.69470000      -3.01830000
H        3.21420000       1.79570000      -1.81080000
H        2.39650000       1.57840000      -0.20360000
H        3.58900000      -0.74210000      -1.91440000
H        1.78930000      -2.17150000      -0.58040000
