18
Properties=species:S:1:pos:R:3 gdb_78974=T pbc="F F F"
O        0.15040000       1.40480000       0.15980000
C        0.05330000       0.00510000       0.04180000
C       -1.37280000      -0.52290000      -0.23250000
C       -1.67580000       0.01810000      -1.64080000
C       -0.37220000      -0.26510000      -2.31640000
C        0.68260000      -0.62100000      -1.23480000
C        0.37540000      -2.11540000      -0.99040000
C       -1.14000000      -1.90900000      -0.94800000
N       -1.45670000      -1.29980000      -2.30440000
H       -0.23900000       1.79020000      -0.63450000
H        0.49920000      -0.40150000       0.95480000
H       -2.11690000      -0.43280000       0.55470000
H       -2.43940000       0.71540000      -1.96930000
H       -0.11890000       0.13340000      -3.29050000
H        1.70970000      -0.33560000      -1.45490000
H        0.66520000      -2.76790000      -1.81830000
H        0.80630000      -2.49570000      -0.05940000
H       -1.78510000      -2.75040000      -0.70290000
