20
Properties=species:S:1:pos:R:3 gdb_119238=T pbc="F F F"
C       -0.91170000       1.03660000      -0.42280000
O       -0.06580000       0.26340000       0.40260000
C       -0.70990000      -0.81130000       1.05960000
C       -0.94420000      -2.00750000       0.14860000
N       -1.79080000      -3.08900000       0.68190000
C       -2.27710000      -2.36250000      -0.48000000
C       -3.53350000      -1.54300000      -0.32470000
C        0.24200000      -2.45930000      -0.64400000
O        0.33350000      -3.57210000      -1.11330000
H       -0.30990000       1.86090000      -0.81260000
H       -1.31200000       0.46200000      -1.26990000
H       -1.75770000       1.45180000       0.14550000
H       -0.03660000      -1.11060000       1.87040000
H       -1.65370000      -0.49130000       1.52100000
H       -1.37460000      -3.97130000       0.38040000
H       -2.17800000      -2.87110000      -1.43830000
H       -3.59610000      -1.08100000       0.66260000
H       -3.59380000      -0.76070000      -1.08810000
H       -4.40820000      -2.19200000      -0.44010000
H        1.04300000      -1.70660000      -0.77200000
