21
Properties=species:S:1:pos:R:3 gdb_122942=T pbc="F F F"
C       -0.03420000       1.41610000       0.01230000
O       -0.01660000       0.01000000      -0.00230000
C        0.64260000      -0.52010000      -1.13020000
C        0.59260000      -2.03980000      -1.05030000
C        1.30740000      -2.71100000      -2.22590000
C        1.18330000      -4.24520000      -2.17540000
O       -0.15500000      -4.65670000      -2.23230000
C        1.97570000      -4.87620000      -3.30110000
O        1.46240000      -5.61230000      -4.10890000
H        0.98340000       1.83900000       0.02990000
H       -0.55920000       1.82880000      -0.86430000
H       -0.56100000       1.72860000       0.91740000
H        0.15940000      -0.16850000      -2.05930000
H        1.68960000      -0.16740000      -1.16340000
H        1.04760000      -2.35720000      -0.10410000
H       -0.45180000      -2.36430000      -1.02720000
H        0.87990000      -2.36420000      -3.17550000
H        2.37150000      -2.43800000      -2.22990000
H        1.65080000      -4.59330000      -1.23420000
H       -0.21360000      -5.25070000      -2.99740000
H        3.05480000      -4.62170000      -3.34630000
