14
Properties=species:S:1:pos:R:3 gdb_5766=T pbc="F F F"
C       -0.14990000       1.34580000      -0.23730000
C        1.25750000       0.90340000      -0.03230000
N        0.16450000      -0.04820000       0.11290000
C       -0.12200000      -0.50640000       1.38330000
N        0.68230000      -0.68580000       2.38650000
C       -0.12880000      -1.25260000       3.36660000
C       -1.38740000      -1.37480000       2.89410000
O       -1.39950000      -0.89710000       1.60450000
H       -0.60000000       1.96530000       0.53350000
H       -0.54640000       1.48480000      -1.23760000
H        1.90150000       0.72770000      -0.88790000
H        1.76030000       1.21370000       0.87830000
H        0.26010000      -1.52440000       4.33510000
H       -2.32370000      -1.73880000       3.27880000
