10
Properties=species:S:1:pos:R:3 gdb_185=T pbc="F F F"
N       -0.07430000       1.30430000       0.00800000
C       -0.01850000       0.03870000       0.00130000
N       -1.08590000      -0.83490000       0.00360000
C       -0.62450000      -2.14850000      -0.00680000
C        0.71010000      -2.08330000      -0.01450000
O        1.11320000      -0.75830000      -0.00970000
H        0.85910000       1.70580000       0.00420000
H       -2.03830000      -0.51980000       0.00930000
H       -1.28760000      -2.99590000      -0.00730000
H        1.48610000      -2.82710000      -0.02310000
