19
Properties=species:S:1:pos:R:3 gdb_117278=T pbc="F F F"
C       -0.07950000       1.55920000      -0.04450000
C        0.18630000       0.07610000       0.02490000
N        1.36770000      -0.38080000       0.06570000
N       -1.00850000      -0.68690000       0.03720000
C       -1.12350000      -2.06100000       0.09440000
O       -0.16630000      -2.81110000       0.14320000
C       -2.56100000      -2.56120000       0.08880000
C       -2.64390000      -4.07980000       0.15820000
O       -4.02320000      -4.41470000       0.14540000
H        0.87350000       2.08590000      -0.05010000
H       -0.63810000       1.81880000      -0.95170000
H       -0.67040000       1.89580000       0.81560000
H        1.35580000      -1.40030000       0.11000000
H       -1.87150000      -0.16620000      -0.00080000
H       -3.10600000      -2.12590000       0.93580000
H       -3.07010000      -2.20820000      -0.81680000
H       -2.10730000      -4.51690000      -0.69500000
H       -2.14380000      -4.43440000       1.06990000
H       -4.09740000      -5.37230000       0.18710000
