19
Properties=species:S:1:pos:R:3 gdb_56242=T pbc="F F F"
N        0.07930000       1.24120000      -0.20800000
C       -0.05710000       0.04010000       0.42850000
O        0.76110000      -0.36560000       1.23090000
C       -1.33440000      -0.73110000       0.09710000
C       -1.07750000      -2.23790000       0.00180000
C       -2.36900000      -3.05660000      -0.08290000
C       -2.08920000      -4.51980000      -0.42490000
N       -2.88150000      -5.42920000       0.21640000
O       -1.24920000      -4.85090000      -1.23900000
H        0.92450000       1.76580000      -0.04970000
H       -0.52900000       1.52340000      -0.95570000
H       -2.04350000      -0.52270000       0.91010000
H       -1.79800000      -0.35420000      -0.82260000
H       -0.46930000      -2.46640000      -0.87820000
H       -0.49010000      -2.54060000       0.87350000
H       -2.94880000      -2.96980000       0.84400000
H       -3.00820000      -2.66590000      -0.88660000
H       -3.48970000      -5.17080000       0.97270000
H       -2.70620000      -6.40730000       0.05120000
