18
Properties=species:S:1:pos:R:3 gdb_61503=T pbc="F F F"
C       -0.06890000       1.41710000       0.00420000
N        0.09200000      -0.02700000      -0.00120000
C        0.04200000      -0.74430000       1.25040000
C       -1.40490000      -0.96970000       1.76570000
O       -2.18380000      -1.67770000       0.81200000
C       -1.37860000      -1.63220000       3.06970000
C       -1.31710000      -2.22230000       4.11540000
C        0.15730000      -0.69600000      -1.19170000
O        0.12590000      -0.18450000      -2.28960000
H        0.68570000       1.88340000       0.64780000
H        0.05450000       1.76620000      -1.02100000
H       -1.06270000       1.71560000       0.35930000
H        0.51490000      -1.72400000       1.12170000
H        0.61580000      -0.20310000       2.01170000
H       -1.89610000       0.00550000       1.86480000
H       -1.96280000      -2.61310000       0.88480000
H       -1.28420000      -2.72860000       5.04890000
H        0.26690000      -1.78690000      -1.03920000
