19
Properties=species:S:1:pos:R:3 gdb_3366=T pbc="F F F"
C        0.04310000       1.65730000       0.04550000
C        0.08830000       0.14340000       0.04940000
C        1.27240000      -0.71290000      -0.34510000
C        2.67840000      -0.12510000      -0.36100000
C        2.92420000       0.47620000       1.04950000
C        1.85250000      -0.14370000       1.98700000
C        0.76900000      -0.72430000       1.08610000
H        0.97430000       2.11980000       0.37640000
H       -0.16870000       2.03370000      -0.96190000
H       -0.75420000       2.02050000       0.70400000
H       -0.85470000      -0.28560000      -0.28570000
H        1.08070000      -1.54990000      -1.00910000
H        3.39070000      -0.93350000      -0.56180000
H        2.82450000       0.62100000      -1.15050000
H        3.93740000       0.26560000       1.40420000
H        2.83440000       1.56520000       1.02660000
H        2.28630000      -0.95840000       2.57800000
H        1.46850000       0.59040000       2.70450000
H        0.20800000      -1.56950000       1.47200000
