23
Properties=species:S:1:pos:R:3 gdb_76898=T pbc="F F F"
C       -0.74750000       1.32150000       0.00210000
C       -0.09540000      -0.05590000      -0.01190000
C        1.09550000      -0.30230000      -1.00080000
O        1.56270000       0.77620000      -1.78150000
C        1.98430000      -0.80120000       0.18720000
C        3.15830000       0.09860000       0.60190000
C        2.53030000       1.23200000       1.44180000
C        1.33700000       0.56530000       2.15740000
C        0.81020000      -0.50680000       1.18520000
H       -0.03320000       2.13300000       0.17660000
H       -1.24100000       1.52290000      -0.95380000
H       -1.50450000       1.38550000       0.79100000
H       -0.88020000      -0.79890000      -0.18850000
H        0.88250000      -1.09010000      -1.72820000
H        1.73870000       1.52600000      -1.20460000
H        2.28700000      -1.84540000       0.08240000
H        3.85420000      -0.47620000       1.22310000
H        3.72330000       0.46710000      -0.25970000
H        3.24160000       1.68540000       2.13830000
H        2.17920000       2.04670000       0.79440000
H        1.69140000       0.07230000       3.07020000
H        0.57110000       1.28440000       2.46420000
H        0.40560000      -1.36600000       1.72420000
