19
Properties=species:S:1:pos:R:3 gdb_17530=T pbc="F F F"
C       -0.08160000       1.42840000      -0.01700000
C        0.02290000      -0.07400000      -0.10250000
C        0.80200000      -0.70530000      -1.19060000
N        1.35450000      -0.61940000       0.22970000
C        1.18360000      -2.11500000       0.33780000
C        0.71290000      -2.20930000      -1.11830000
C       -0.27830000      -3.13010000      -1.76840000
C        1.18570000      -3.18500000      -2.15010000
H        0.82650000       1.89950000      -0.40350000
H       -0.93610000       1.79290000      -0.59700000
H       -0.21040000       1.75020000       1.02150000
H       -0.84270000      -0.62100000       0.27400000
H        1.23820000      -0.13370000      -2.00580000
H        2.15030000      -2.59020000       0.52450000
H        0.47470000      -2.41750000       1.11760000
H       -0.68120000      -3.94530000      -1.17560000
H       -0.97900000      -2.70940000      -2.48260000
H        1.47320000      -2.80090000      -3.12400000
H        1.77200000      -4.03640000      -1.81810000
