19
Properties=species:S:1:pos:R:3 gdb_121507=T pbc="F F F"
C        0.01760000       1.53620000       0.08770000
C       -0.03580000       0.02060000       0.08480000
O        0.73900000      -0.44730000       1.19780000
C        0.81590000      -1.77670000       1.34690000
N        1.47590000      -2.28240000       2.29510000
C        1.50790000      -3.72510000       2.38440000
C        2.97810000      -4.19830000       2.38610000
C        3.09530000      -5.64540000       2.53990000
N        3.16530000      -6.79280000       2.65840000
H        1.04900000       1.88500000      -0.00940000
H       -0.56510000       1.93210000      -0.74890000
H       -0.39450000       1.93360000       1.01890000
H       -1.06980000      -0.33610000       0.18170000
H        0.37820000      -0.38530000      -0.84770000
H        0.26410000      -2.35970000       0.59210000
H        1.04440000      -4.03650000       3.32780000
H        0.96240000      -4.22910000       1.56960000
H        3.46440000      -3.89760000       1.45190000
H        3.51470000      -3.69880000       3.19900000
