18
Properties=species:S:1:pos:R:3 gdb_99789=T pbc="F F F"
C        0.01030000       1.47150000       0.00430000
C        0.00720000       0.01610000       0.00580000
C        0.00570000      -1.18710000       0.02250000
C       -0.00400000      -2.65060000      -0.01910000
C       -1.44630000      -3.21260000       0.03480000
C        0.71180000      -3.13570000      -1.32850000
O        0.78190000      -4.53650000      -1.41840000
C        0.77340000      -3.19560000       1.11290000
N        1.40540000      -3.67570000       1.95340000
H        1.01850000       1.86380000       0.17450000
H       -0.34470000       1.86620000      -0.95360000
H       -0.64020000       1.86830000       0.79090000
H       -2.02780000      -2.77370000      -0.77970000
H       -1.42050000      -4.29690000      -0.08690000
H       -1.92570000      -2.96140000       0.98260000
H        0.11470000      -2.78950000      -2.17650000
H        1.69970000      -2.66100000      -1.38410000
H        1.40620000      -4.85100000      -0.75390000
