17
Properties=species:S:1:pos:R:3 gdb_108032=T pbc="F F F"
O        0.03340000       1.31390000      -0.40000000
C       -0.06340000       0.02620000       0.18340000
C       -1.44580000      -0.54240000       0.07880000
O       -2.41200000       0.20390000       0.78100000
C       -3.57780000      -0.51690000       0.50130000
C       -3.54320000      -1.14450000      -0.87820000
C       -3.30430000      -2.00210000       0.36400000
C       -1.79220000      -2.01970000       0.06150000
C       -2.03250000      -1.15790000      -1.17830000
H       -0.67930000       1.84010000      -0.02080000
H        0.63970000      -0.61880000      -0.35240000
H        0.23870000       0.04280000       1.24230000
H       -4.47630000      -0.11710000       0.95090000
H       -4.35760000      -1.13900000      -1.58860000
H       -3.89620000      -2.79100000       0.80570000
H       -1.09440000      -2.82630000       0.23990000
H       -1.54850000      -1.15450000      -2.14460000
