18
Properties=species:S:1:pos:R:3 gdb_125924=T pbc="F F F"
C       -0.79740000       1.22720000       0.01680000
C        0.18940000       0.06320000       0.00120000
C        1.15570000       0.06160000      -1.23380000
C        2.35640000      -0.65590000      -0.69550000
C        3.50540000      -1.30300000      -0.99680000
O        4.11510000      -1.70610000       0.14160000
N        3.34680000      -1.31390000       1.25040000
C        2.32360000      -0.70010000       0.72420000
C        1.10490000      -0.01560000       1.26710000
H       -0.27050000       2.18750000       0.06050000
H       -1.42210000       1.22970000      -0.88260000
H       -1.46390000       1.17220000       0.88370000
H       -0.37500000      -0.87670000      -0.03980000
H        0.69710000      -0.41110000      -2.10700000
H        1.40750000       1.09100000      -1.52280000
H        4.01930000      -1.56570000      -1.90840000
H        1.36190000       0.99070000       1.62350000
H        0.63170000      -0.54310000       2.09880000
