20
Properties=species:S:1:pos:R:3 gdb_124554=T pbc="F F F"
C       -0.30520000       1.71610000      -0.27150000
C        0.15340000       0.26830000      -0.05270000
C       -1.03110000      -0.63650000       0.34400000
C        0.86420000      -0.29900000      -1.25520000
N        0.63030000       0.16300000      -2.46070000
O        1.41840000      -0.59180000      -3.32390000
C        2.10750000      -1.48570000      -2.59900000
C        1.81810000      -1.37270000      -1.27800000
C        2.36620000      -2.15740000      -0.12830000
H        0.53730000       2.36580000      -0.52300000
H       -1.02500000       1.77690000      -1.09200000
H       -0.78140000       2.10120000       0.63550000
H        0.87290000       0.25470000       0.77740000
H       -1.78350000      -0.64870000      -0.45090000
H       -0.71410000      -1.66860000       0.52210000
H       -1.50470000      -0.26600000       1.25870000
H        2.76850000      -2.13370000      -3.15470000
H        2.81210000      -1.50310000       0.62930000
H        1.58990000      -2.74640000       0.37290000
H        3.14150000      -2.85160000      -0.46290000
