21
Properties=species:S:1:pos:R:3 gdb_92891=T pbc="F F F"
C       -0.04730000       1.56470000      -0.01250000
C        0.10060000       0.04550000       0.00440000
C        0.78650000      -0.50790000      -1.26730000
C        1.10300000      -1.97390000      -1.15420000
C        1.15570000      -2.62520000       0.00580000
C        0.95920000      -1.97800000       1.36010000
C        2.03770000      -2.39630000       2.36860000
C        0.85780000      -0.45480000       1.23110000
O        1.34610000       0.29390000       2.04630000
H        0.93300000       2.04940000      -0.02310000
H       -0.60340000       1.88720000      -0.89840000
H       -0.57470000       1.91960000       0.87620000
H       -0.89290000      -0.42540000       0.05010000
H        0.13800000      -0.32550000      -2.13320000
H        1.70660000       0.06210000      -1.46600000
H        1.29400000      -2.51080000      -2.08020000
H        1.38160000      -3.68940000       0.02060000
H       -0.01730000      -2.30640000       1.75670000
H        3.03200000      -2.10890000       2.01460000
H        1.87240000      -1.90840000       3.33080000
H        2.02590000      -3.48080000       2.51360000
