15
Properties=species:S:1:pos:R:3 gdb_62285=T pbc="F F F"
N       -0.07670000       1.45450000      -0.01350000
C       -0.03690000       0.01370000      -0.03780000
C        0.82800000      -0.50750000       1.01930000
N        1.54250000      -0.91840000       1.82960000
C       -1.38400000      -0.72180000      -0.08480000
C       -1.72310000      -0.79010000      -1.58070000
O       -0.68850000      -0.10670000      -2.30110000
C        0.24280000      -0.75730000      -1.40460000
C       -0.82810000      -1.82020000      -0.99080000
H        0.85350000       1.84910000       0.08500000
H       -0.46170000       1.76770000      -0.90130000
H       -2.12270000      -0.79220000       0.70190000
H       -2.72340000      -0.81930000      -1.98970000
H        1.24300000      -0.89110000      -1.80880000
H       -0.84240000      -2.89740000      -0.92890000
