21
Properties=species:S:1:pos:R:3 gdb_63059=T pbc="F F F"
C       -0.16990000       1.60670000      -0.00020000
C       -0.00860000       0.08620000       0.00400000
C       -1.38730000      -0.56650000      -0.17280000
C        1.07210000      -0.59890000      -0.90680000
C        2.37190000       0.13820000      -0.54250000
C        2.34400000      -0.35250000       0.92210000
O        2.53650000      -1.78530000       0.71620000
C        1.19600000      -1.74730000       0.22100000
C        0.78960000      -0.58330000       1.14540000
H        0.74620000       2.14000000       0.26250000
H       -0.49870000       1.96640000      -0.98240000
H       -0.93480000       1.90350000       0.72670000
H       -1.84700000      -0.23550000      -1.11100000
H       -1.33860000      -1.65860000      -0.19780000
H       -2.06250000      -0.28340000       0.64250000
H        0.86460000      -0.82060000      -1.95330000
H        3.25910000      -0.25680000      -1.04160000
H        2.32520000       1.21750000      -0.68760000
H        3.00930000       0.07870000       1.66870000
H        0.71660000      -2.71600000       0.10210000
H        0.42990000      -0.71240000       2.16610000
