18
Properties=species:S:1:pos:R:3 gdb_17800=T pbc="F F F"
C       -1.29660000       0.71730000       0.46430000
C       -0.02130000      -0.06080000       0.18120000
O        0.90980000      -0.05930000       0.95700000
C        0.00340000      -0.81040000      -1.13330000
C        1.22920000      -1.67690000      -1.54360000
C        0.79000000      -2.73290000      -0.48250000
C       -0.51550000      -2.29760000      -1.20750000
C        0.27750000      -2.40440000      -2.54060000
H       -1.40580000       1.53230000      -0.26090000
H       -2.17730000       0.07520000       0.35200000
H       -1.26250000       1.13330000       1.47190000
H       -0.41170000      -0.17580000      -1.92620000
H        2.23880000      -1.31400000      -1.73400000
H        1.11290000      -3.76040000      -0.67020000
H        0.90850000      -2.45780000       0.56370000
H       -1.53450000      -2.63720000      -1.01370000
H       -0.09620000      -1.82220000      -3.38780000
H        0.57410000      -3.41180000      -2.84400000
