18
Properties=species:S:1:pos:R:3 gdb_41887=T pbc="F F F"
C        0.16090000       1.59560000       0.15660000
O        1.47510000       1.47350000      -0.43870000
C        1.30780000       0.05300000      -0.62620000
C        2.41270000      -0.74810000       0.04010000
O        2.12910000      -2.15460000      -0.00630000
C        1.06210000      -2.64930000       0.68000000
N        0.10940000      -2.11640000       1.31230000
C       -0.09710000      -0.67500000       1.43350000
C       -0.05880000       0.06750000       0.09990000
H        0.20490000       2.04100000       1.15830000
H       -0.51150000       2.19370000      -0.46960000
H        1.25260000      -0.21030000      -1.69080000
H        3.35750000      -0.62520000      -0.49500000
H        2.56640000      -0.42260000       1.07310000
H        1.11200000      -3.73670000       0.61810000
H       -1.07930000      -0.52510000       1.89580000
H        0.62760000      -0.24050000       2.13410000
H       -0.89380000      -0.25220000      -0.52650000
