15
Properties=species:S:1:pos:R:3 gdb_4578=T pbc="F F F"
C       -0.04460000       1.50990000       0.01090000
C        0.01450000       0.00400000       0.02400000
N        0.12380000      -0.60500000      -1.16720000
C        0.17970000      -1.93090000      -1.21030000
C        0.13070000      -2.74110000      -0.07100000
O        0.19680000      -4.09010000      -0.24360000
C        0.01750000      -2.11790000       1.16690000
C       -0.04100000      -0.72860000       1.20980000
H        0.85460000       1.92640000      -0.45460000
H       -0.89880000       1.85650000      -0.57980000
H       -0.13300000       1.91890000       1.02060000
H        0.26810000      -2.40030000      -2.18730000
H        0.15270000      -4.52350000       0.61510000
H       -0.02440000      -2.70500000       2.08100000
H       -0.12930000      -0.21790000       2.16280000
