16
Properties=species:S:1:pos:R:3 gdb_42588=T pbc="F F F"
O       -0.05970000      -0.03990000      -0.02670000
C       -0.03700000       1.16120000       0.00390000
C       -1.17880000       2.13560000       0.05310000
C       -0.69320000       3.31410000       0.83800000
C        0.82750000       3.22910000       1.08230000
C        1.35080000       4.28040000       0.05650000
C        0.72370000       3.28730000      -0.94620000
C        1.13270000       2.12650000       0.00490000
N       -0.76150000       3.39420000      -0.63210000
H       -2.21490000       1.83340000      -0.02340000
H       -1.35240000       3.94460000       1.42330000
H        1.18770000       3.15480000       2.10650000
H        0.93980000       5.29270000       0.09330000
H        2.44100000       4.30530000      -0.00380000
H        0.92420000       3.28860000      -2.01590000
H        2.14030000       1.72870000      -0.05120000
