11
Properties=species:S:1:pos:R:3 gdb_132896=T pbc="F F F"
O       -0.03370000       1.27620000       0.15350000
C        0.03260000      -0.04920000       0.05660000
N        1.16360000      -0.66600000       0.02920000
C        1.13050000      -2.02210000      -0.07160000
F        2.31340000      -2.62010000      -0.09680000
C       -0.00740000      -2.72990000      -0.14210000
O       -1.20680000      -2.08150000      -0.11340000
C       -1.29680000      -0.71640000      -0.01400000
O       -2.36200000      -0.17070000       0.00930000
H        0.87630000       1.60690000       0.19250000
H       -0.09170000      -3.80280000      -0.22270000
