17
Properties=species:S:1:pos:R:3 gdb_41832=T pbc="F F F"
C       -0.01330000       1.54490000       0.01630000
O        1.30550000       2.08040000      -0.09530000
C        2.14160000       1.38840000      -0.96990000
C        1.70090000       0.11050000      -1.60540000
O        0.44420000      -0.40230000      -1.29590000
C        0.02670000       0.01700000       0.02000000
C        0.98790000      -0.53100000       1.04920000
C        2.29410000      -0.51660000       0.76590000
C        2.77200000       0.05300000      -0.50690000
H       -0.41930000       1.93710000       0.95330000
H       -0.64450000       1.88570000      -0.81870000
H        2.78260000       2.06180000      -1.53150000
H        1.97000000      -0.12060000      -2.62970000
H       -0.98250000      -0.38410000       0.14580000
H        0.59780000      -0.95120000       1.96920000
H        3.02540000      -0.93570000       1.44970000
H        3.80110000      -0.12910000      -0.79460000
