20
Properties=species:S:1:pos:R:3 gdb_68816=T pbc="F F F"
C        0.11270000       1.51510000      -0.10550000
C       -0.03700000       0.03360000       0.07500000
C        1.02540000      -0.97650000      -0.30370000
C        0.55250000      -0.90800000       1.12910000
C        1.41420000      -0.67120000       2.33260000
N       -0.74690000      -1.57820000       1.22990000
C       -1.38490000      -0.69360000       0.24030000
C       -1.05590000      -2.86970000       1.50950000
O       -2.10160000      -3.40970000       1.21190000
H        1.14660000       1.83300000       0.06360000
H       -0.15920000       1.81860000      -1.12340000
H       -0.52730000       2.07040000       0.58910000
H        0.78550000      -1.84030000      -0.91890000
H        2.00820000      -0.55140000      -0.48680000
H        2.20860000       0.04260000       2.09490000
H        0.82560000      -0.27040000       3.16390000
H        1.89640000      -1.59500000       2.67170000
H       -2.16710000      -0.07150000       0.68770000
H       -1.79070000      -1.21600000      -0.63190000
H       -0.25170000      -3.37310000       2.08510000
