17
Properties=species:S:1:pos:R:3 gdb_75086=T pbc="F F F"
C        0.09000000       1.54360000       0.08850000
C       -0.00620000       0.04750000      -0.02530000
C       -0.01000000      -0.61220000      -1.18660000
C       -0.11880000      -2.11400000      -1.29140000
C       -0.80570000      -2.75190000      -0.09060000
O       -1.61330000      -3.64700000      -0.18710000
C       -0.45200000      -2.15950000       1.24040000
O        0.90910000      -1.75990000       1.42040000
C       -0.06650000      -0.72430000       1.25190000
H        0.98540000       1.84300000       0.64750000
H        0.12840000       2.01610000      -0.89580000
H       -0.77060000       1.95740000       0.62940000
H        0.08400000      -0.06390000      -2.12020000
H       -0.66020000      -2.42200000      -2.18950000
H        0.88880000      -2.55150000      -1.36320000
H       -0.93990000      -2.60940000       2.10220000
H       -0.26750000      -0.16090000       2.16220000
