20
Properties=species:S:1:pos:R:3 gdb_54606=T pbc="F F F"
C       -0.02800000       1.56610000      -0.03800000
C       -0.05270000       0.04490000       0.07550000
O       -0.12220000      -0.47780000       1.18300000
C       -0.00060000      -0.69590000      -1.17770000
C        0.04330000      -2.05360000      -1.32030000
C        0.01830000      -3.11760000      -0.27290000
N        0.17500000      -2.42420000      -2.63990000
C       -0.11710000      -1.27350000      -3.50500000
C        0.12320000      -0.06980000      -2.56340000
H        0.85900000       1.90810000      -0.58340000
H       -0.90190000       1.93040000      -0.59080000
H       -0.03060000       1.99680000       0.96390000
H       -0.84060000      -3.78410000      -0.42250000
H        0.92160000      -3.73480000      -0.34170000
H       -0.04380000      -2.66190000       0.71310000
H       -0.15020000      -3.33830000      -2.91780000
H        0.52810000      -1.26870000      -4.38740000
H       -1.16200000      -1.30080000      -3.84660000
H       -0.59060000       0.73640000      -2.75420000
H        1.12580000       0.35110000      -2.72310000
