19
Properties=species:S:1:pos:R:3 gdb_115457=T pbc="F F F"
O       -0.18900000       1.40700000       0.14790000
C       -0.06590000       0.00410000       0.20590000
C       -1.34870000      -0.68360000      -0.25980000
C       -1.32590000      -2.22020000      -0.09490000
C       -2.49660000      -2.53250000       0.87930000
C       -2.72330000      -1.16070000       1.54530000
O       -2.44950000      -0.20450000       0.53330000
C       -3.73320000      -2.96640000       0.12170000
O       -4.26230000      -4.04180000       0.23370000
H       -1.03480000       1.61270000       0.56540000
H        0.76780000      -0.27950000      -0.44640000
H        0.18150000      -0.34180000       1.22540000
H       -1.56090000      -0.37170000      -1.28740000
H       -1.43770000      -2.73490000      -1.05250000
H       -0.38070000      -2.55450000       0.34320000
H       -2.24660000      -3.31590000       1.59760000
H       -3.74990000      -0.99690000       1.88730000
H       -2.05250000      -1.04670000       2.40990000
H       -4.13690000      -2.19320000      -0.57250000
