18
Properties=species:S:1:pos:R:3 gdb_40323=T pbc="F F F"
C        0.63400000       1.50230000       0.51920000
N        1.24090000       0.38870000      -0.23050000
C       -0.14520000       0.27090000       0.23500000
C       -0.41860000      -0.74440000       1.31430000
C        0.45950000      -1.91560000       1.47720000
O        0.54310000      -0.79450000       2.36470000
C       -1.85720000      -0.83730000       1.73770000
C       -2.23600000      -1.01800000       3.14180000
O       -2.36610000       0.25680000       2.50560000
H        1.04000000       1.64040000       1.51530000
H        0.36800000       2.41260000      -0.01050000
H        1.25640000       0.59870000      -1.22450000
H       -0.94160000       0.35030000      -0.50290000
H        0.06500000      -2.82870000       1.92080000
H        1.30460000      -2.02340000       0.80260000
H       -2.53920000      -1.18900000       0.96060000
H       -3.17290000      -1.51750000       3.38430000
H       -1.44750000      -1.08250000       3.88680000
