19
Properties=species:S:1:pos:R:3 gdb_81952=T pbc="F F F"
C       -0.07270000       1.37740000       0.01690000
N       -0.03960000      -0.04810000       0.23980000
C       -1.17690000      -0.90230000       0.10060000
C       -1.31020000      -1.71800000      -1.17610000
C       -0.60960000      -2.29260000       0.04540000
N        0.80420000      -2.11600000       0.15760000
C        1.77020000      -3.13920000      -0.16260000
C        1.14530000      -0.76940000       0.16650000
O        2.26840000      -0.30890000       0.10770000
H        0.95200000       1.74420000       0.09820000
H       -0.46270000       1.62720000      -0.97970000
H       -0.69560000       1.87780000       0.76720000
H       -2.05450000      -0.64770000       0.68530000
H       -2.29500000      -2.11080000      -1.40540000
H       -0.70660000      -1.43770000      -2.03280000
H       -1.04280000      -3.12690000       0.58680000
H        1.63810000      -3.52190000      -1.18430000
H        2.76130000      -2.69010000      -0.07820000
H        1.69540000      -3.98180000       0.53440000
