17
Properties=species:S:1:pos:R:3 gdb_47904=T pbc="F F F"
O       -0.46120000       0.94730000      -1.22360000
C       -0.07210000       1.30660000      -0.14490000
O       -0.87830000       1.24340000       0.97170000
C       -1.68190000       2.39290000       1.26800000
C       -0.85520000       3.66160000       1.45900000
O        0.07850000       3.61350000       2.52030000
C        1.01850000       2.53360000       2.53330000
C        1.77060000       2.33680000       1.23260000
C        1.30350000       1.79630000       0.09890000
H       -2.41740000       2.55250000       0.46730000
H       -2.21280000       2.13580000       2.18770000
H       -0.36230000       3.92780000       0.51250000
H       -1.53620000       4.48220000       1.70850000
H        1.72600000       2.80840000       3.31970000
H        0.52910000       1.59910000       2.82390000
H        2.79660000       2.69790000       1.21980000
H        1.94230000       1.72880000      -0.77650000
