21
Properties=species:S:1:pos:R:3 gdb_122205=T pbc="F F F"
O       -0.01680000       1.41490000      -0.13730000
C        0.02650000       0.00470000       0.01960000
C       -1.40450000      -0.51400000      -0.01650000
C       -1.48110000      -2.03640000       0.13060000
C       -2.90490000      -2.58060000       0.10950000
O       -3.60070000      -1.98880000       1.17910000
C       -3.58380000      -2.58400000      -1.28870000
O       -3.36250000      -4.00090000      -1.42520000
C       -2.98970000      -4.12310000      -0.03890000
H        0.88420000       1.74900000      -0.10500000
H        0.61630000      -0.46730000      -0.78430000
H        0.50000000      -0.27610000       0.97520000
H       -1.97740000      -0.03660000       0.78350000
H       -1.85930000      -0.19780000      -0.96350000
H       -0.91830000      -2.52750000      -0.67280000
H       -1.01810000      -2.34350000       1.07760000
H       -4.51310000      -2.29630000       1.16020000
H       -4.65490000      -2.33220000      -1.24950000
H       -3.11210000      -2.01000000      -2.09380000
H       -2.06850000      -4.70120000       0.09700000
H       -3.79050000      -4.57070000       0.56950000
