16
Properties=species:S:1:pos:R:3 gdb_86776=T pbc="F F F"
O        0.52130000       1.11070000       0.51200000
C        0.02860000      -0.13520000       0.10810000
C       -1.50720000      -0.20030000      -0.16220000
N       -1.17080000      -0.72720000      -1.50160000
C       -1.98640000      -0.76630000      -2.68720000
C       -2.42870000       0.56540000      -3.14660000
N       -2.77230000       1.61860000      -3.47410000
C        0.18750000      -0.44740000      -1.37990000
N        1.19940000      -0.35360000      -2.12920000
H        1.27540000       1.31030000      -0.05630000
H        0.37660000      -0.94360000       0.76390000
H       -2.10260000      -0.88290000       0.44970000
H       -1.95460000       0.79860000      -0.18140000
H       -1.41790000      -1.24730000      -3.49070000
H       -2.87370000      -1.38500000      -2.51210000
H        0.99380000      -0.50250000      -3.11760000
