20
Properties=species:S:1:pos:R:3 gdb_92736=T pbc="F F F"
C       -0.05990000       1.56540000       0.01520000
C        0.07380000       0.04330000       0.00310000
C        0.70550000      -0.50250000      -1.29150000
C        0.98040000      -1.97890000      -1.19310000
C        1.27770000      -2.53470000      -0.01460000
C        1.61480000      -3.97920000       0.20510000
N        1.30210000      -1.74040000       1.14610000
C        0.81260000      -0.45550000       1.24770000
O        0.92500000       0.18300000       2.27540000
H        0.91910000       2.04190000      -0.10160000
H       -0.70150000       1.90020000      -0.80560000
H       -0.48320000       1.90890000       0.96050000
H       -0.92960000      -0.40380000       0.08690000
H        0.03970000      -0.28490000      -2.13350000
H        1.63940000       0.04490000      -1.49930000
H        0.96580000      -2.59350000      -2.08490000
H        2.61720000      -4.08970000       0.63840000
H        0.90900000      -4.45190000       0.89890000
H        1.59260000      -4.52780000      -0.73800000
H        1.70950000      -2.10860000       1.99350000
