16
Properties=species:S:1:pos:R:3 gdb_39707=T pbc="F F F"
O       -0.12740000       1.40090000       0.00680000
C        1.21750000       0.88180000      -0.00810000
C        0.04940000       0.00520000       0.00130000
C       -0.40890000      -1.00130000       1.05920000
C       -1.89810000      -1.27640000       0.76380000
N       -1.67890000      -2.55800000       0.01180000
C       -1.91320000      -1.27240000      -0.72860000
C       -0.43010000      -0.99560000      -1.05250000
C       -0.20240000      -2.13840000      -0.00190000
H        1.76790000       1.04780000      -0.93320000
H        1.78640000       1.04290000       0.90650000
H       -0.04150000      -1.01720000       2.08200000
H       -2.76480000      -1.11870000       1.39270000
H       -2.79230000      -1.11130000      -1.33910000
H       -0.08350000      -1.00600000      -2.08250000
H        0.59440000      -2.87690000      -0.01190000
