14
Properties=species:S:1:pos:R:3 gdb_131161=T pbc="F F F"
O       -0.22940000       1.37980000       0.18980000
C       -0.05840000       0.05190000       0.05140000
C        0.05300000      -0.65070000      -1.12980000
C        0.05130000      -0.23890000      -2.56420000
C        1.43610000      -0.41700000      -3.17980000
O        1.68230000      -1.18640000      -4.07030000
N        0.21140000      -1.93170000      -0.68160000
N        0.18870000      -2.01290000       0.65110000
N        0.02360000      -0.79380000       1.10390000
H       -0.29150000       1.55930000       1.13660000
H       -0.66730000      -0.80930000      -3.16160000
H       -0.22040000       0.82180000      -2.60900000
H        2.22700000       0.20880000      -2.71100000
H        0.32990000      -2.77330000      -1.22480000
