18
Properties=species:S:1:pos:R:3 gdb_115695=T pbc="F F F"
N        0.63670000       0.72690000       0.50630000
C        0.23530000      -0.04110000      -0.54630000
O        0.87830000      -0.12280000      -1.57680000
C       -1.05850000      -0.80850000      -0.32070000
C       -1.76470000      -1.32770000      -1.58610000
O       -1.72220000      -2.69650000      -1.11880000
C       -0.94090000      -2.32360000       0.04160000
C        0.41970000      -3.00290000      -0.01550000
O        0.23790000      -4.40530000      -0.06880000
H        1.50670000       1.22820000       0.42960000
H        0.10450000       0.80500000       1.35460000
H       -1.71790000      -0.27310000       0.36580000
H       -2.79280000      -0.98430000      -1.73970000
H       -1.17390000      -1.18130000      -2.49520000
H       -1.46020000      -2.61150000       0.96390000
H        0.98510000      -2.62960000      -0.88010000
H        0.99640000      -2.78530000       0.89090000
H       -0.34700000      -4.56330000      -0.82050000
