19
Properties=species:S:1:pos:R:3 gdb_41380=T pbc="F F F"
C        0.08670000       1.58110000      -0.09150000
O        1.43450000       1.57610000       0.47660000
C        1.42390000       0.13280000       0.54920000
C        0.76570000      -0.44350000       1.82130000
O       -0.52390000      -0.53150000       1.13880000
C        0.04420000       0.03580000      -0.06310000
C        0.11210000      -0.86880000      -1.28200000
C        1.43350000      -1.66270000      -1.03940000
C        2.39140000      -0.67950000      -0.29660000
H       -0.63820000       2.06960000       0.56720000
H        0.07350000       2.05140000      -1.08180000
H        1.11350000      -1.43230000       2.14410000
H        0.74210000       0.24240000       2.67440000
H       -0.75920000      -1.52100000      -1.38110000
H        0.18820000      -0.26670000      -2.19410000
H        1.22250000      -2.52400000      -0.39570000
H        1.86920000      -2.05400000      -1.96250000
H        2.88230000      -0.00570000      -1.00620000
H        3.16960000      -1.20120000       0.26770000
