21
Properties=species:S:1:pos:R:3 gdb_94462=T pbc="F F F"
C       -0.40720000       1.37010000      -0.19380000
C        0.11980000      -0.05510000      -0.14130000
C        1.56600000      -0.33640000      -0.59640000
O        1.84600000      -1.07630000       0.60740000
C        0.58420000      -0.66570000       1.20810000
C        0.80890000       0.23010000       2.43320000
C        0.90410000      -0.81220000       3.54830000
O       -0.09520000      -1.77380000       3.22320000
C       -0.18480000      -1.85870000       1.80470000
H        0.28420000       2.07300000       0.28190000
H       -0.54710000       1.69060000      -1.23170000
H       -1.37590000       1.45740000       0.30970000
H       -0.58420000      -0.73080000      -0.63810000
H        1.70090000      -0.94690000      -1.49620000
H        2.19230000       0.56340000      -0.67970000
H        1.69970000       0.85240000       2.32800000
H       -0.06210000       0.87370000       2.59850000
H        1.90470000      -1.27200000       3.56140000
H        0.68510000      -0.42400000       4.54640000
H       -1.24540000      -1.84210000       1.52400000
H        0.26340000      -2.78960000       1.43230000
