16
Properties=species:S:1:pos:R:3 gdb_96793=T pbc="F F F"
C        0.06170000       1.40410000      -0.00940000
N        0.04470000      -0.04960000       0.01750000
C       -1.06940000      -0.64700000      -0.02080000
N       -2.36840000      -0.11930000      -0.06090000
C       -3.38600000      -1.05820000       0.09510000
O       -4.55920000      -0.80980000       0.21040000
C       -2.69610000      -2.40330000       0.11060000
N       -1.97610000      -2.63270000      -1.16790000
C       -1.23860000      -2.13480000       0.01800000
H        1.04130000       1.75820000       0.32060000
H       -0.09760000       1.78210000      -1.02870000
H       -0.69760000       1.86220000       0.64320000
H       -2.58280000       0.85750000      -0.18300000
H       -3.14330000      -3.22550000       0.65350000
H       -1.79980000      -3.63250000      -1.25530000
H       -0.47390000      -2.73990000       0.48610000
