16
Properties=species:S:1:pos:R:3 gdb_29645=T pbc="F F F"
C        0.06260000       1.43320000      -0.00020000
N       -0.02260000      -0.00840000       0.01610000
C       -0.12600000      -0.77670000      -1.12030000
N       -0.20810000      -0.34080000      -2.31130000
O       -0.11110000      -2.09710000      -0.71200000
C       -0.01140000      -2.10720000       0.67670000
O       -0.06010000      -3.29430000       1.30840000
C        0.05940000      -0.85350000       1.13930000
N        0.26620000      -0.33330000       2.42180000
H        0.59190000       1.76390000       0.89580000
H        0.61110000       1.74050000      -0.89320000
H       -0.92830000       1.90340000      -0.03070000
H       -0.26170000      -1.11040000      -2.97250000
H        0.68000000      -3.84540000       1.02000000
H       -0.55920000       0.13240000       2.79040000
H        0.51920000      -1.07640000       3.06250000
