20
Properties=species:S:1:pos:R:3 gdb_44941=T pbc="F F F"
N       -0.05480000       1.28260000      -0.12880000
C       -0.02930000       0.02260000      -0.05910000
O        1.11230000      -0.74050000      -0.03690000
C        0.73990000      -2.14200000       0.06110000
C       -0.64090000      -2.17380000      -0.60550000
C       -1.22730000      -0.90400000       0.03270000
C       -1.55280000      -1.19220000       1.51880000
C       -0.28580000      -1.58250000       2.30930000
C        0.63790000      -2.54880000       1.53740000
H        0.89570000       1.65760000      -0.16060000
H        1.50930000      -2.70920000      -0.46660000
H       -0.55140000      -2.07610000      -1.69150000
H       -1.20560000      -3.08100000      -0.37790000
H       -2.08840000      -0.48390000      -0.48660000
H       -2.01430000      -0.31200000       1.97650000
H       -2.29360000      -2.00060000       1.55350000
H        0.27930000      -0.67070000       2.52970000
H       -0.55960000      -2.01450000       3.27670000
H        0.25750000      -3.57710000       1.57950000
H        1.63240000      -2.55890000       1.99510000
