19
Properties=species:S:1:pos:R:3 gdb_69508=T pbc="F F F"
C       -0.04190000       1.53110000       0.14700000
C       -0.03050000       0.03540000       0.02410000
C        1.17540000      -0.77690000      -0.42640000
C        0.64410000      -0.99820000       0.95740000
O        1.45130000      -0.78230000       2.05560000
C       -0.61100000      -1.85220000       0.91730000
C       -0.74320000      -3.33590000       1.04170000
O       -1.70930000      -1.02620000       1.37560000
C       -1.24730000      -0.86740000       0.02040000
H        0.92000000       1.89540000       0.52310000
H       -0.22820000       2.02080000      -0.81570000
H       -0.82090000       1.85340000       0.84600000
H        1.08840000      -1.54130000      -1.19480000
H        2.10790000      -0.22050000      -0.45790000
H        0.88230000      -0.49230000       2.77890000
H       -0.56430000      -3.65510000       2.07440000
H       -1.74680000      -3.65990000       0.75510000
H       -0.01070000      -3.84240000       0.40520000
H       -1.96910000      -1.04810000      -0.76910000
