17
Properties=species:S:1:pos:R:3 gdb_92668=T pbc="F F F"
C       -0.16120000       1.55210000       0.02180000
C        0.06840000       0.03940000      -0.01750000
C        0.84280000      -0.49480000      -1.24070000
C        1.92790000      -1.35770000      -0.65930000
C        1.96420000      -1.34520000       0.68740000
C        2.86600000      -2.02330000       1.53900000
C        3.61460000      -2.58790000       2.29400000
C        0.87630000      -0.44660000       1.19950000
O        0.66620000      -0.14690000       2.34780000
H        0.78440000       2.09500000      -0.08330000
H       -0.82770000       1.87260000      -0.78440000
H       -0.60610000       1.83500000       0.97920000
H       -0.90400000      -0.46490000       0.04960000
H        0.21150000      -1.06270000      -1.93450000
H        1.28060000       0.32030000      -1.83310000
H        2.61590000      -1.91930000      -1.28150000
H        4.27520000      -3.08500000       2.96040000
