14
Properties=species:S:1:pos:R:3 gdb_43239=T pbc="F F F"
O       -0.05480000      -0.02950000      -0.21970000
C       -0.05120000       1.14040000       0.05690000
C       -1.22460000       2.09740000       0.12870000
C       -0.61760000       3.29530000       0.29920000
C        0.06060000       4.19260000      -0.68370000
C        1.30170000       4.27350000       0.10990000
C        0.72190000       3.20430000       1.06550000
C        1.17520000       2.09710000       0.10580000
N        1.28270000       3.24290000      -0.97270000
H       -2.10410000       1.89130000      -0.47010000
H       -0.28720000       4.74530000      -1.54540000
H        2.07140000       5.02670000       0.20550000
H        0.74920000       3.14930000       2.15100000
H        2.15270000       1.61960000       0.17310000
