17
Properties=species:S:1:pos:R:3 gdb_82220=T pbc="F F F"
O        0.09300000       1.42540000       0.01760000
C        0.02890000       0.01120000      -0.02320000
C        0.76050000      -0.66730000       1.13200000
O        0.18920000      -0.34620000       2.41270000
C       -0.15420000      -1.60340000       1.79870000
C       -1.48890000      -1.60850000       1.08190000
C       -2.29610000      -0.32290000       1.16740000
C       -1.39760000      -0.57980000      -0.01250000
O       -1.97720000      -0.84430000      -1.25320000
H       -0.14150000       1.68590000       0.91630000
H        0.48910000      -0.28550000      -0.97190000
H        1.84290000      -0.76310000       1.11870000
H        0.18390000      -2.48250000       2.33880000
H       -2.00100000      -2.55090000       0.93230000
H       -3.35710000      -0.41790000       0.96400000
H       -2.02330000       0.40170000       1.92440000
H       -2.27990000      -0.00510000      -1.61890000
