19
Properties=species:S:1:pos:R:3 gdb_17238=T pbc="F F F"
C        0.00300000       1.47880000       0.28470000
C       -0.05980000       0.00580000      -0.13680000
C       -1.45650000      -0.54450000      -0.20370000
C       -2.67650000       0.05680000      -0.89040000
C       -3.47130000      -0.83620000       0.07830000
C       -3.18710000      -2.29010000      -0.34290000
C       -1.77610000      -1.97350000       0.11550000
N       -2.24060000      -0.87740000       1.04370000
H        1.04050000       1.81530000       0.37030000
H       -0.49550000       2.12730000      -0.44300000
H       -0.48450000       1.62140000       1.25370000
H        0.42220000      -0.12650000      -1.11510000
H        0.51400000      -0.60190000       0.57330000
H       -2.78570000       1.11420000      -0.63640000
H       -2.81710000      -0.08150000      -1.96840000
H       -4.44220000      -0.53330000       0.46540000
H       -3.66540000      -3.00380000       0.33300000
H       -3.37040000      -2.58070000      -1.38310000
H       -1.00270000      -2.67050000       0.42080000
