20
Properties=species:S:1:pos:R:3 gdb_11610=T pbc="F F F"
C        0.11550000       1.60710000      -0.05070000
C        0.00890000       0.07100000       0.03050000
C        0.58640000      -0.59610000      -1.23380000
C        0.65570000      -0.43570000       1.24190000
C        1.20700000      -0.84580000       2.23340000
C        1.86030000      -1.33090000       3.41560000
C        1.14240000      -2.28790000       4.35460000
C        2.28350000      -2.78790000       3.51850000
H        1.16330000       1.91670000      -0.11650000
H       -0.40860000       1.97850000      -0.93730000
H       -0.32150000       2.07870000       0.83340000
H       -1.05900000      -0.18510000       0.08430000
H        1.64980000      -0.36010000      -1.34100000
H        0.48530000      -1.68360000      -1.18560000
H        0.06300000      -0.23890000      -2.12690000
H        2.52490000      -0.61790000       3.89570000
H        1.29890000      -2.15170000       5.41880000
H        0.13850000      -2.58670000       4.07810000
H        2.05500000      -3.42650000       2.67360000
H        3.22990000      -2.99840000       4.00380000
