22
Properties=species:S:1:pos:R:3 gdb_93630=T pbc="F F F"
C        0.86110000       1.63130000      -0.02920000
C        0.20050000       0.24660000       0.01850000
C        0.61640000      -0.64750000      -1.16570000
C        1.98460000      -1.23990000      -0.76170000
C        1.98410000      -1.26380000       0.80610000
C        3.15110000      -0.57400000       1.35420000
N        4.07880000      -0.02900000       1.77930000
C        0.61600000      -0.62120000       1.23230000
C        0.59750000       0.05200000       2.60270000
H        1.95430000       1.57290000      -0.01680000
H        0.56770000       2.15930000      -0.94230000
H        0.55790000       2.24900000       0.82100000
H       -0.88670000       0.38670000       0.02950000
H       -0.11690000      -1.45190000      -1.29290000
H        0.66700000      -0.10450000      -2.11380000
H        2.14620000      -2.23900000      -1.17210000
H        2.80290000      -0.61320000      -1.12260000
H        2.03110000      -2.29180000       1.17860000
H       -0.09080000      -1.46030000       1.26270000
H        1.32340000       0.86630000       2.66950000
H       -0.39610000       0.46140000       2.81260000
H        0.83490000      -0.66410000       3.39620000
