17
Properties=species:S:1:pos:R:3 gdb_91253=T pbc="F F F"
C        0.06460000       1.52990000       0.18940000
C        0.02110000       0.02440000      -0.00880000
C        0.82700000      -0.63970000      -1.20150000
C        1.16370000      -1.84120000      -0.24340000
O        2.45300000      -2.36240000      -0.01470000
C        2.93190000      -1.83110000       1.18670000
O        3.99840000      -2.14190000       1.62870000
C        1.94660000      -0.81890000       1.66890000
C        0.89530000      -0.86480000       0.84880000
H        1.09760000       1.89040000       0.21350000
H       -0.45840000       2.04290000      -0.62380000
H       -0.41710000       1.81650000       1.12960000
H       -1.01380000      -0.33460000      -0.03500000
H        0.27230000      -0.87790000      -2.11100000
H        1.72230000      -0.06040000      -1.43490000
H        0.45400000      -2.66350000      -0.37100000
H        2.20410000      -0.11340000       2.44490000
