14
Properties=species:S:1:pos:R:3 gdb_4622=T pbc="F F F"
C       -0.02970000       1.49010000       0.01000000
N       -0.00830000       0.03430000       0.00100000
C       -1.18140000      -0.68980000       0.00410000
C       -1.15520000      -2.03570000      -0.00340000
C        0.12060000      -2.76190000      -0.01490000
O        0.19780000      -3.97390000      -0.02220000
N        1.28490000      -1.95130000      -0.01770000
C        1.16630000      -0.67370000      -0.01000000
H        0.99630000       1.86040000       0.00280000
H       -0.54630000       1.87760000      -0.87360000
H       -0.53010000       1.86700000       0.90750000
H       -2.09450000      -0.10490000       0.01280000
H       -2.07360000      -2.60860000      -0.00120000
H        2.06060000      -0.04920000      -0.01200000
