23
Properties=species:S:1:pos:R:3 gdb_96176=T pbc="F F F"
C       -0.10890000       1.58690000      -0.03000000
C        0.02240000       0.06100000      -0.02130000
C        0.61810000      -0.48800000      -1.32860000
C        0.89820000      -1.98460000      -1.20100000
O        1.84710000      -2.23660000      -0.17760000
C        1.38400000      -1.89520000       1.11920000
C        2.59350000      -1.41250000       1.94700000
C        2.25710000       0.04340000       1.51730000
C        0.81370000      -0.44720000       1.18790000
H        0.87360000       2.06590000      -0.10710000
H       -0.71180000       1.92660000      -0.87920000
H       -0.58560000       1.95080000       0.88680000
H       -0.98950000      -0.36450000       0.06510000
H       -0.07010000      -0.30250000      -2.16230000
H        1.55860000       0.02390000      -1.56890000
H       -0.04010000      -2.53280000      -1.00410000
H        1.33240000      -2.38890000      -2.12040000
H        0.75710000      -2.70600000       1.51870000
H        2.43950000      -1.57100000       3.01780000
H        3.55870000      -1.82840000       1.65230000
H        2.35810000       0.83200000       2.26610000
H        2.81340000       0.33430000       0.62320000
H        0.20110000      -0.35300000       2.09200000
