11
Properties=species:S:1:pos:R:3 gdb_128880=T pbc="F F F"
N        0.14980000      -1.15630000      -0.00620000
C        0.03310000      -0.00490000       0.00210000
C       -0.08580000       1.40470000       0.01190000
C       -1.19380000       2.23150000       0.03150000
C       -0.65380000       3.53560000       0.03200000
N        0.68810000       3.51880000       0.01400000
N        1.00360000       2.23130000       0.00230000
C       -1.37240000       4.76400000       0.04870000
N       -1.99130000       5.74060000       0.06260000
H       -2.22930000       1.93760000       0.04360000
H        1.97480000       1.95870000      -0.01220000
