16
Properties=species:S:1:pos:R:3 gdb_67537=T pbc="F F F"
N       -0.03790000       1.47540000       0.14130000
C        0.03070000       0.06030000      -0.00940000
C        1.23640000      -0.63050000       0.69550000
N        0.98560000      -2.08210000       0.71040000
C        1.53640000      -1.45600000      -0.51260000
C        0.34800000      -0.81720000      -1.27170000
O       -0.93160000      -1.49280000      -1.12700000
C       -1.27660000      -0.72960000      -0.01970000
N       -2.34010000      -0.68670000       0.63920000
H        0.83380000       1.92510000      -0.11840000
H       -0.78620000       1.87580000      -0.41360000
H        1.88730000      -0.15260000       1.41790000
H        1.76330000      -2.52390000       1.19930000
H        2.48140000      -1.77870000      -0.93080000
H        0.51760000      -0.43420000      -2.27730000
H       -3.02020000      -1.36570000       0.29200000
