17
Properties=species:S:1:pos:R:3 gdb_31295=T pbc="F F F"
C        0.07880000       1.42740000       0.10320000
N       -0.21510000       0.03090000      -0.15670000
C        0.50780000      -0.64370000      -1.12780000
C        0.66840000      -2.03150000      -1.19010000
N        1.40310000      -2.29990000      -2.34110000
C        1.70530000      -1.13970000      -2.97700000
C        1.17180000      -0.08930000      -2.25550000
C        0.21650000      -3.02150000      -0.30870000
C       -0.17450000      -3.85570000       0.47380000
H        1.13320000       1.61910000       0.36000000
H       -0.16890000       2.03460000      -0.77410000
H       -0.54840000       1.77410000       0.92810000
H       -0.36070000      -0.52250000       0.67560000
H        1.66720000      -3.22340000      -2.63430000
H        2.27740000      -1.13720000      -3.89090000
H        1.24770000       0.95450000      -2.51370000
H       -0.53490000      -4.59160000       1.14830000
