21
Properties=species:S:1:pos:R:3 gdb_112901=T pbc="F F F"
C        0.67400000       1.39830000       0.15350000
C        0.05970000       0.00700000       0.02960000
C        0.50730000      -0.77720000      -1.22360000
C        1.65780000      -1.65470000      -0.70640000
O        2.89360000      -0.95140000      -0.63380000
C        1.17890000      -1.96090000       0.71570000
C        2.25100000      -2.25970000       1.75620000
O        1.66680000      -2.45850000       3.03140000
O        0.47190000      -0.79440000       1.14830000
H        1.76250000       1.33590000       0.07840000
H        0.29860000       2.05790000      -0.63670000
H        0.41380000       1.84050000       1.11950000
H       -1.03490000       0.08820000       0.06020000
H       -0.30260000      -1.41510000      -1.59190000
H        0.81780000      -0.12460000      -2.04500000
H        1.77440000      -2.57690000      -1.29160000
H        3.14810000      -0.70500000      -1.52830000
H        0.48100000      -2.81280000       0.67660000
H        2.77660000      -3.18500000       1.49760000
H        2.98120000      -1.44130000       1.76360000
H        1.11880000      -1.68140000       3.19180000
