13
Properties=species:S:1:pos:R:3 gdb_44197=T pbc="F F F"
O       -0.39930000       0.24310000       0.61510000
C       -0.12340000       1.28520000       0.12730000
O       -0.99610000       2.26580000      -0.33350000
C        0.09160000       3.12170000      -0.76900000
C        0.59280000       4.05210000       0.36400000
O        1.50270000       3.00360000       0.83370000
C        1.12450000       2.11880000      -0.23840000
C        1.29550000       5.24510000      -0.06220000
C        1.86460000       6.23220000      -0.44320000
H       -0.03580000       3.49050000      -1.78230000
H       -0.17460000       4.27830000       1.11200000
H        1.96380000       1.65420000      -0.75430000
H        2.36920000       7.11020000      -0.76520000
