13
Properties=species:S:1:pos:R:3 gdb_3741=T pbc="F F F"
C        0.00540000       1.44400000       0.04290000
N       -0.01100000       0.00170000      -0.07390000
C        0.01450000      -0.76440000      -1.19960000
C       -0.01360000      -2.05760000      -0.71940000
N       -0.06970000      -3.27180000      -1.40010000
N       -0.05570000      -2.01120000       0.63950000
N       -0.05920000      -0.75970000       1.02410000
H        0.91930000       1.85770000      -0.39350000
H       -0.86230000       1.88290000      -0.45800000
H       -0.02990000       1.68020000       1.10630000
H        0.04210000      -0.34420000      -2.19010000
H        0.54100000      -3.31880000      -2.20430000
H        0.11840000      -4.04120000      -0.76960000
