15
Properties=species:S:1:pos:R:3 gdb_71543=T pbc="F F F"
O        0.14330000       1.33580000       0.08810000
C        0.10240000      -0.02380000      -0.04440000
C        0.66120000      -0.93570000      -1.16040000
C        0.09710000      -1.93170000      -0.12710000
C        0.47120000      -1.02540000       1.08600000
O       -0.85570000      -1.06600000       1.68180000
C       -1.12080000      -1.01630000       0.24490000
C       -2.44950000      -0.99820000      -0.26730000
C       -3.55810000      -0.95530000      -0.73290000
H       -0.29970000       1.73850000      -0.66750000
H        0.15090000      -0.89970000      -2.12680000
H        1.74630000      -0.93140000      -1.29030000
H        0.08160000      -3.01780000      -0.14220000
H        1.34160000      -1.05360000       1.73820000
H       -4.54180000      -0.92840000      -1.13300000
