17
Properties=species:S:1:pos:R:3 gdb_69710=T pbc="F F F"
C       -0.08770000       1.51790000       0.03810000
C        0.11030000       0.03490000       0.01630000
N       -0.77760000      -0.90590000       0.72790000
C        0.68060000      -0.92120000       1.00730000
C        1.35320000      -1.76710000      -0.10230000
C        0.76290000      -0.78450000      -1.15400000
N        0.03640000      -1.91020000      -1.73570000
C        0.43330000      -2.83040000      -0.76740000
O        0.14710000      -3.97830000      -0.58220000
H        0.80340000       2.03960000      -0.32740000
H       -0.93140000       1.81440000      -0.59670000
H       -0.29060000       1.87440000       1.05380000
H       -1.22390000      -0.38860000       1.48470000
H        1.05500000      -0.75780000       2.00990000
H        2.41910000      -1.96090000      -0.01050000
H        1.38630000      -0.21000000      -1.84010000
H       -0.84690000      -1.90780000      -2.22790000
