21
Properties=species:S:1:pos:R:3 gdb_68410=T pbc="F F F"
C        0.02740000       1.54680000       0.03730000
C        0.03410000       0.03830000       0.03230000
C        0.85580000      -0.81720000      -0.99670000
C        0.56760000      -1.91470000       0.05450000
C        0.73960000      -0.82470000       1.13840000
O       -0.85940000      -2.08100000      -0.02380000
C       -1.29130000      -0.71660000      -0.04250000
C       -2.56510000      -0.36570000       0.65370000
C       -2.48210000      -0.36030000      -0.87040000
H        1.04720000       1.93970000       0.09400000
H       -0.43170000       1.94750000      -0.87350000
H       -0.52770000       1.94130000       0.89570000
H        0.44040000      -0.96100000      -1.99690000
H        1.90570000      -0.52030000      -1.04250000
H        1.04930000      -2.89040000       0.07730000
H        1.77820000      -0.52850000       1.30000000
H        0.21810000      -0.97530000       2.08650000
H       -3.10800000      -1.18010000       1.12050000
H       -2.64320000       0.58730000       1.16710000
H       -2.50440000       0.59630000      -1.38250000
H       -2.97080000      -1.17120000      -1.39900000
