21
Properties=species:S:1:pos:R:3 gdb_64237=T pbc="F F F"
C       -0.09860000       1.55860000      -0.14180000
C       -0.06410000       0.03570000      -0.02120000
C       -1.43680000      -0.57380000      -0.28700000
C        1.13020000      -0.60170000      -0.78060000
O        1.84140000      -0.85470000       0.44810000
C        0.67840000      -0.52110000       1.23660000
C        1.01730000       0.37420000       2.42620000
C        1.94830000      -0.33110000       3.39230000
O        1.70550000      -0.51770000       4.55760000
H        0.89110000       2.00230000       0.00150000
H       -0.44740000       1.84840000      -1.13920000
H       -0.78120000       2.00480000       0.58940000
H       -1.79460000      -0.31220000      -1.28910000
H       -1.41130000      -1.66570000      -0.21390000
H       -2.17680000      -0.20570000       0.43280000
H        0.88700000      -1.53320000      -1.30970000
H        1.69490000       0.05530000      -1.45230000
H        0.19320000      -1.43760000       1.60700000
H        1.52590000       1.27680000       2.06640000
H        0.10980000       0.66350000       2.96500000
H        2.89980000      -0.68080000       2.93730000
