18
Properties=species:S:1:pos:R:3 gdb_32006=T pbc="F F F"
C        0.11330000       1.55650000      -0.11540000
C       -0.06220000       0.03550000       0.04620000
C        0.60920000      -0.51350000       1.27610000
C       -0.05240000      -0.97100000       2.37970000
C        0.70420000      -1.44160000       3.48910000
C        2.06620000      -1.44880000       3.47720000
C        2.81190000      -0.97610000       2.32810000
O        4.02430000      -0.93500000       2.19340000
N        1.97500000      -0.53020000       1.28130000
H        1.16900000       1.83590000      -0.18740000
H       -0.38710000       1.90420000      -1.02350000
H       -0.31430000       2.08940000       0.73870000
H       -1.12660000      -0.20980000       0.09740000
H        0.33530000      -0.47500000      -0.84080000
H       -1.13390000      -0.96990000       2.39900000
H        0.17450000      -1.80520000       4.36510000
H        2.65110000      -1.80660000       4.31520000
H        2.48560000      -0.20380000       0.47120000
