19
Properties=species:S:1:pos:R:3 gdb_13427=T pbc="F F F"
C       -0.13210000       1.49460000       0.65210000
C        0.07090000       0.05110000       0.24140000
C        0.40090000      -0.37520000      -1.15680000
C        0.57460000       0.59080000      -2.30970000
N        1.38080000      -0.53500000      -0.07540000
C        2.58110000       0.30100000      -0.04370000
C        3.64020000      -0.27270000      -0.87180000
C        4.51190000      -0.72930000      -1.56100000
H        0.18790000       1.65140000       1.68840000
H        0.40320000       2.21060000       0.02610000
H       -1.19710000       1.74480000       0.59870000
H       -0.54280000      -0.63320000       0.82800000
H       -0.00050000      -1.33580000      -1.47980000
H        0.86940000       1.59540000      -2.00110000
H        1.33370000       0.22060000      -3.00630000
H       -0.36840000       0.68020000      -2.85930000
H        2.42490000       1.34500000      -0.35490000
H        2.92110000       0.34180000       0.99910000
H        5.28420000      -1.13820000      -2.16400000
