18
Properties=species:S:1:pos:R:3 gdb_81567=T pbc="F F F"
C        0.20290000       1.43570000      -1.22490000
C        0.23100000      -0.01590000      -0.80180000
C        1.44450000      -0.97600000      -1.04400000
C        2.18180000      -0.19370000       0.08130000
N        0.76700000      -0.37010000       0.60860000
H        0.35450000      -0.07990000       1.49640000
C        0.84680000      -1.85940000       0.09850000
C       -0.51400000      -2.61340000      -0.01090000
O       -1.47350000      -1.99670000       0.49510000
O       -0.38410000      -3.69790000      -0.58360000
H        1.15800000       1.96050000      -1.15660000
H       -0.11970000       1.46850000      -2.27050000
H       -0.54270000       1.98670000      -0.64300000
H       -0.74640000      -0.48270000      -0.90960000
H        1.84630000      -1.31370000      -1.99250000
H        2.92610000      -0.73420000       0.66680000
H        2.46590000       0.84540000      -0.07820000
H        1.58690000      -2.41080000       0.68320000
