19
Properties=species:S:1:pos:R:3 gdb_115169=T pbc="F F F"
C        0.56070000       0.66270000       0.45930000
O       -0.08220000      -0.53320000       0.04830000
C       -1.48520000      -0.43640000      -0.08750000
C       -1.94780000      -1.64880000      -0.92650000
C       -1.93050000      -2.84460000       0.05520000
C       -1.99810000      -2.19580000       1.43140000
O       -1.83480000      -2.70500000       2.51260000
C       -2.20820000      -0.69350000       1.25160000
O       -1.78800000       0.03440000       2.36720000
H        1.63360000       0.45500000       0.46540000
H        0.36470000       1.47900000      -0.25320000
H        0.23950000       0.97600000       1.45660000
H       -1.76560000       0.52300000      -0.54280000
H       -2.95750000      -1.46820000      -1.30730000
H       -1.28490000      -1.78950000      -1.78120000
H       -2.75290000      -3.55190000      -0.08590000
H       -1.00090000      -3.41800000      -0.00250000
H       -3.29030000      -0.54350000       1.06720000
H       -1.64410000      -0.62680000       3.06320000
