12
Properties=species:S:1:pos:R:3 gdb_21652=T pbc="F F F"
N       -0.36500000       1.31690000       0.41340000
C       -0.04570000       0.01190000       0.12300000
N       -0.91320000      -0.82730000      -0.45930000
N       -0.21100000      -1.97790000      -0.48240000
C        1.00870000      -1.80180000       0.05820000
C        1.99120000      -2.88350000       0.16250000
O        1.77060000      -4.00790000      -0.23100000
N        1.14940000      -0.54020000       0.45510000
H        0.43670000       1.92280000       0.49940000
H       -1.10700000       1.70160000      -0.15160000
H       -0.59860000      -2.82420000      -0.86840000
H        2.94820000      -2.58460000       0.63020000
