23
Properties=species:S:1:pos:R:3 gdb_114446=T pbc="F F F"
C       -0.00530000       1.60870000      -0.01320000
C        0.05550000       0.07820000      -0.03000000
C        0.70420000      -0.52520000       1.22140000
C       -0.12960000      -0.37640000       2.53330000
C       -0.26950000      -1.84490000       2.93050000
C        1.07390000      -2.58810000       2.63140000
C        0.27470000      -3.86510000       2.28350000
C       -0.52150000      -2.70190000       1.64720000
C        0.82630000      -2.05240000       1.18510000
H        0.99880000       2.04180000       0.05810000
H       -0.47220000       1.99900000      -0.92300000
H       -0.58360000       1.97740000       0.84080000
H       -0.95820000      -0.32950000      -0.14290000
H        0.61490000      -0.25100000      -0.91580000
H        1.69820000      -0.07460000       1.34550000
H        0.38150000       0.21540000       3.29950000
H       -1.10360000       0.09380000       2.35450000
H       -0.81700000      -2.09350000       3.84270000
H        2.00180000      -2.51020000       3.20290000
H        0.74950000      -4.57210000       1.59660000
H       -0.20210000      -4.38990000       3.11690000
H       -1.45040000      -2.76300000       1.07610000
H        1.37210000      -2.50750000       0.35470000
