17
Properties=species:S:1:pos:R:3 gdb_22989=T pbc="F F F"
N        0.03070000       1.21150000       0.49190000
C        0.06650000      -0.02610000      -0.07780000
O        1.03810000      -0.48960000      -0.64060000
C       -1.26460000      -0.77950000      -0.00420000
C       -1.19390000      -2.33620000       0.00100000
C       -2.04160000      -2.37270000       1.31490000
C       -1.97070000      -0.86110000       1.33780000
N       -2.26160000       0.07400000       2.14100000
O       -2.85810000      -0.41410000       3.31480000
H        0.90310000       1.71160000       0.55910000
H       -0.70490000       1.43310000       1.14820000
H       -1.91310000      -0.37580000      -0.79070000
H       -1.64450000      -2.82570000      -0.86250000
H       -0.17010000      -2.69290000       0.11600000
H       -3.05940000      -2.75670000       1.19760000
H       -1.59080000      -2.86740000       2.17950000
H       -3.02210000       0.39200000       3.81610000
