20
Properties=species:S:1:pos:R:3 gdb_53289=T pbc="F F F"
C       -0.22330000       1.22240000      -0.82400000
C       -0.19270000      -0.19570000      -0.49550000
C       -0.18470000      -1.37100000      -0.22200000
C       -0.09390000      -2.77260000       0.06730000
C       -0.44090000      -3.33220000       1.44670000
C       -1.28630000      -3.72830000       0.28240000
N       -2.68870000      -3.44240000       0.23230000
C       -3.22970000      -2.11160000       0.47130000
C       -3.24840000      -2.70710000      -0.89650000
H        0.12550000       1.83830000       0.01270000
H        0.41890000       1.44230000      -1.68430000
H       -1.23700000       1.55320000      -1.07830000
H        0.74700000      -3.25910000      -0.42200000
H        0.23000000      -4.05530000       1.89720000
H       -0.87690000      -2.62450000       2.14330000
H       -1.09360000      -4.71730000      -0.12580000
H       -4.13610000      -2.09290000       1.07160000
H       -2.54720000      -1.28440000       0.63720000
H       -2.55490000      -2.28380000      -1.61910000
H       -4.16700000      -3.11150000      -1.31350000
