19
Properties=species:S:1:pos:R:3 gdb_102096=T pbc="F F F"
O        0.01290000       1.38570000       0.00660000
C        0.01140000      -0.02110000       0.20480000
C       -1.41830000      -0.53220000      -0.04980000
C       -1.85770000      -0.11900000      -1.44640000
O       -1.98130000      -0.88720000      -2.37370000
C       -1.51480000      -2.03710000       0.14580000
O       -0.71290000      -2.77610000      -0.73290000
C       -1.63120000      -2.60860000       1.52590000
C       -2.82240000      -2.64790000       0.58700000
H        0.91870000       1.70050000       0.07680000
H        0.69800000      -0.53510000      -0.48050000
H        0.30090000      -0.28720000       1.23180000
H       -2.07750000      -0.01380000       0.65920000
H       -2.04930000       0.96280000      -1.58310000
H       -1.05550000      -2.57410000      -1.61640000
H       -1.10480000      -3.53910000       1.70360000
H       -1.66170000      -1.93130000       2.37300000
H       -3.66740000      -1.99960000       0.79440000
H       -3.07650000      -3.60580000       0.14860000
