16
Properties=species:S:1:pos:R:3 gdb_97835=T pbc="F F F"
O        0.22150000       1.18550000       0.69570000
C        0.00010000       0.22080000      -0.32190000
C       -1.35380000      -0.33440000      -0.31360000
C       -2.46300000      -0.79860000      -0.24460000
C       -3.79640000      -1.35650000      -0.19080000
C       -4.49390000      -1.74970000      -1.52360000
O       -4.62520000      -3.12470000      -1.05590000
C       -3.95070000      -2.85030000       0.11400000
N       -3.61050000      -3.58730000       1.06400000
H       -0.01400000       0.77780000       1.53580000
H        0.18750000       0.73820000      -1.26940000
H        0.72810000      -0.60380000      -0.26180000
H       -4.44440000      -0.75640000       0.45610000
H       -5.47090000      -1.29940000      -1.70960000
H       -3.86010000      -1.69340000      -2.41020000
H       -3.89600000      -4.55590000       0.91130000
