20
Properties=species:S:1:pos:R:3 gdb_78385=T pbc="F F F"
C       -0.20390000       1.25610000      -0.05330000
N        0.06120000      -0.17730000       0.05630000
C        1.48980000      -0.51020000      -0.12760000
C        0.87780000      -0.52630000       1.23960000
C        0.99950000      -2.06350000       1.30810000
C       -0.19440000      -2.91450000       0.73800000
O       -1.48860000      -2.40160000       0.85630000
C        0.48500000      -2.89990000      -0.67950000
C        1.65240000      -2.04780000      -0.11360000
H        0.62200000       1.88440000       0.31750000
H       -0.38290000       1.50830000      -1.10290000
H       -1.10370000       1.50090000       0.51940000
H        2.13690000       0.22170000      -0.59760000
H        0.95380000       0.18440000       2.05440000
H        1.53060000      -2.44050000       2.18220000
H       -0.21390000      -3.91780000       1.17350000
H       -1.43480000      -1.52150000       0.45140000
H        0.79510000      -3.88900000      -1.02630000
H       -0.11580000      -2.42150000      -1.45530000
H        2.67470000      -2.39250000      -0.26620000
