13
Properties=species:S:1:pos:R:3 gdb_43431=T pbc="F F F"
N       -0.12970000       1.29530000       0.01080000
C       -0.02040000       0.03030000       0.00360000
N        1.10730000      -0.78360000      -0.00780000
C        0.78010000      -2.14360000      -0.01260000
O        1.56740000      -3.05880000      -0.02250000
C       -0.70710000      -2.17870000      -0.00330000
C       -1.18390000      -0.91750000       0.00620000
C       -2.52230000      -0.47790000       0.01710000
C       -3.66880000      -0.11160000       0.02630000
H        0.78230000       1.75630000       0.00720000
H        2.05910000      -0.45490000      -0.01240000
H       -1.26690000      -3.10140000      -0.00440000
H       -4.67720000       0.22210000       0.03450000
