21
Properties=species:S:1:pos:R:3 gdb_95162=T pbc="F F F"
C        0.04370000       1.54850000       0.08990000
C       -0.00440000       0.02910000       0.03880000
C        0.59930000      -0.54390000      -1.25280000
C        0.84560000      -2.04680000      -1.16280000
C        0.56200000      -2.86180000      -2.40250000
O        2.06250000      -2.40330000      -0.47790000
C        0.82160000      -2.67040000       0.17230000
C        0.51250000      -1.83350000       1.39380000
O        0.69750000      -0.45270000       1.17830000
H        1.08190000       1.89340000       0.06420000
H       -0.48750000       1.98090000      -0.76360000
H       -0.41690000       1.91540000       1.01090000
H       -1.05600000      -0.30450000       0.10720000
H       -0.07220000      -0.32490000      -2.09060000
H        1.55550000      -0.05110000      -1.46380000
H        1.14210000      -2.48160000      -3.25100000
H        0.83220000      -3.90920000      -2.24570000
H       -0.49840000      -2.80840000      -2.67240000
H        0.56350000      -3.72790000       0.26200000
H       -0.52570000      -2.04850000       1.70620000
H        1.17620000      -2.10910000       2.22040000
