18
Properties=species:S:1:pos:R:3 gdb_80275=T pbc="F F F"
C       -0.01570000       1.53300000       0.01680000
C       -0.01620000       0.02350000       0.01660000
C       -1.31620000      -0.71860000      -0.26830000
C       -1.33140000      -1.94110000       0.66450000
O       -2.18100000      -2.79570000       0.75180000
N       -0.14940000      -1.90780000       1.37760000
C        0.69370000      -0.78350000       1.09770000
C        1.26150000      -0.73630000      -0.30600000
O        1.24610000      -1.86460000      -1.12020000
H        0.96560000       1.93070000       0.29560000
H       -0.26120000       1.92590000      -0.97630000
H       -0.74980000       1.93210000       0.72630000
H       -2.19560000      -0.10040000      -0.06500000
H       -1.38860000      -1.07180000      -1.30130000
H        0.06950000      -2.62570000       2.04970000
H        1.20140000      -0.32700000       1.94060000
H        2.15110000      -0.12810000      -0.45450000
H        1.01990000      -2.62550000      -0.57100000
