23
Properties=species:S:1:pos:R:3 gdb_89447=T pbc="F F F"
C       -0.99030000       1.00930000      -0.01100000
C        0.03610000      -0.11340000      -0.00020000
C        1.30540000       0.03010000      -0.88640000
C        2.19310000      -0.51550000       0.27820000
C        2.65810000      -1.95130000       0.08090000
C        3.30290000       0.45090000       0.75320000
C        2.59070000       1.34470000       1.74090000
C        1.34770000       0.93740000       2.00480000
C        0.96820000      -0.30250000       1.24310000
H       -0.52230000       1.97230000       0.21920000
H       -1.46580000       1.09510000      -0.99470000
H       -1.78330000       0.83700000       0.72600000
H       -0.46350000      -1.06450000      -0.21650000
H        1.32170000      -0.54490000      -1.81690000
H        1.52940000       1.07480000      -1.12360000
H        3.42360000      -2.01410000      -0.70200000
H        3.08960000      -2.35860000       1.00250000
H        1.82990000      -2.60450000      -0.21610000
H        4.13830000      -0.08030000       1.23310000
H        3.74050000       1.01130000      -0.08400000
H        3.06920000       2.20800000       2.19240000
H        0.67350000       1.42670000       2.70050000
H        0.68710000      -1.12770000       1.90870000
