18
Properties=species:S:1:pos:R:3 gdb_126771=T pbc="F F F"
C       -0.16480000       1.56670000      -0.08400000
C        0.06180000       0.05340000      -0.05490000
N        0.78290000      -0.43180000      -1.21150000
N        0.14310000      -0.55740000      -2.43310000
C        1.11120000      -1.03950000      -3.19300000
N        0.95210000      -1.28440000      -4.54490000
N        2.31660000      -1.22670000      -2.57730000
C        2.06310000      -0.82790000      -1.34020000
N        2.96270000      -0.88390000      -0.28640000
H        0.78480000       2.11130000      -0.07060000
H       -0.70430000       1.84470000      -0.99260000
H       -0.75360000       1.88020000       0.78350000
H        0.62630000      -0.24880000       0.83300000
H       -0.89840000      -0.47090000      -0.02480000
H       -0.00870000      -1.44650000      -4.81040000
H        1.57570000      -2.00160000      -4.88570000
H        3.88750000      -1.10880000      -0.62880000
H        2.98700000      -0.05430000       0.29110000
