16
Properties=species:S:1:pos:R:3 gdb_105858=T pbc="F F F"
C        0.10870000       1.36970000      -0.19500000
O       -0.19540000       0.00040000       0.07810000
C        0.53760000      -0.52170000       1.10200000
C        2.00370000      -0.96830000       0.97630000
N        3.08000000      -0.45950000       1.77750000
C        0.95300000      -1.95220000       1.40310000
O        0.69000000      -1.75490000       2.82240000
C        0.17070000      -0.48230000       2.57280000
O       -0.37680000       0.23810000       3.33920000
H        1.16600000       1.49340000      -0.46100000
H       -0.51830000       1.66270000      -1.03850000
H       -0.12140000       2.00300000       0.66940000
H        2.26140000      -1.05640000      -0.07780000
H        2.83750000      -0.51990000       2.76280000
H        3.90260000      -1.04310000       1.65080000
H        0.64560000      -2.89400000       0.96970000
