18
Properties=species:S:1:pos:R:3 gdb_69169=T pbc="F F F"
C        0.00580000       1.54250000       0.03510000
C        0.02550000       0.04320000      -0.00340000
C       -0.88290000      -0.84910000       0.77180000
C        0.61640000      -0.95210000       1.03800000
C        1.27190000      -1.71070000      -0.08580000
O        2.09320000      -2.58000000      -0.14030000
C        0.63480000      -0.79130000      -1.13440000
C        0.13750000      -1.03910000      -2.50710000
N        1.39430000      -0.30080000      -2.28310000
H        0.99250000       1.96240000      -0.18860000
H       -0.70760000       1.94970000      -0.69200000
H       -0.29570000       1.90460000       1.02260000
H       -1.43690000      -0.38330000       1.58190000
H       -1.40910000      -1.66640000       0.28660000
H        1.02960000      -0.77010000       2.02220000
H        0.26410000      -2.02010000      -2.95620000
H       -0.74520000      -0.49190000      -2.83070000
H        1.23690000       0.69910000      -2.39700000
