21
Properties=species:S:1:pos:R:3 gdb_75284=T pbc="F F F"
C       -0.15240000       1.54310000       0.07190000
C       -0.03560000       0.04960000      -0.04770000
C       -0.04250000      -0.59590000      -1.21620000
C        0.08940000      -2.09380000      -1.33500000
C       -0.14190000      -2.84070000      -0.02270000
C        0.77570000      -2.83720000       1.18250000
C        1.51630000      -1.51020000       1.34880000
C        0.14080000      -0.74910000       1.22180000
C       -0.57210000      -2.12120000       1.21960000
H        0.72460000       1.97080000       0.57610000
H       -0.24730000       2.02320000      -0.90620000
H       -1.02380000       1.82640000       0.67700000
H       -0.14580000      -0.04000000      -2.14570000
H       -0.63650000      -2.45260000      -2.07730000
H        1.07360000      -2.35340000      -1.75310000
H       -0.62360000      -3.80680000      -0.15000000
H        1.06000000      -3.76990000       1.65630000
H        1.94350000      -1.40350000       2.34950000
H        2.28300000      -1.26010000       0.60850000
H       -0.07740000      -0.14750000       2.10610000
H       -1.47720000      -2.35540000       1.76670000
