22
Properties=species:S:1:pos:R:3 gdb_115483=T pbc="F F F"
C       -0.14900000       1.58560000      -0.59020000
C       -0.01080000       0.18350000       0.00590000
C       -1.31930000      -0.61440000      -0.01940000
C       -1.18690000      -2.04970000       0.55980000
O       -2.21010000      -2.12030000       1.57420000
C       -2.76710000      -0.87510000       1.63150000
C       -3.81970000      -0.70660000       2.67980000
C       -3.28510000      -0.94060000       4.10190000
N       -2.35990000       0.01070000       0.81700000
H        0.79740000       2.13230000      -0.53600000
H       -0.44710000       1.53820000      -1.64370000
H       -0.91100000       2.15630000      -0.05390000
H        0.75300000      -0.38490000      -0.54160000
H        0.33340000       0.24910000       1.04620000
H       -1.68570000      -0.64470000      -1.05460000
H       -1.37050000      -2.84190000      -0.17040000
H       -0.21560000      -2.22500000       1.03640000
H       -4.22930000       0.30000000       2.57420000
H       -4.62690000      -1.41980000       2.47260000
H       -4.08840000      -0.82580000       4.83490000
H       -2.86930000      -1.94640000       4.20100000
H       -2.49780000      -0.22100000       4.34630000
