17
Properties=species:S:1:pos:R:3 gdb_73772=T pbc="F F F"
C        0.09390000       1.51210000       0.06600000
C       -0.00980000       0.02600000       0.00450000
C       -1.08910000      -0.77800000       0.02810000
C       -2.54440000      -0.47100000       0.12180000
C       -0.62550000      -2.20090000      -0.06150000
O       -1.29290000      -3.20890000      -0.06790000
N        0.76490000      -2.13850000      -0.13750000
C        1.21320000      -0.81950000      -0.10160000
N        2.39770000      -0.35560000      -0.14580000
H        0.70250000       1.81950000       0.92280000
H        0.60120000       1.89880000      -0.82400000
H       -0.88780000       1.98330000       0.14420000
H       -3.07550000      -0.84920000      -0.75890000
H       -2.98840000      -0.97480000       0.98730000
H       -2.73250000       0.60100000       0.20720000
H        1.34870000      -2.95570000      -0.20420000
H        3.09560000      -1.09810000      -0.21850000
