18
Properties=species:S:1:pos:R:3 gdb_13780=T pbc="F F F"
C       -0.04670000       1.04270000       0.90240000
C       -0.15590000       0.33050000      -0.44470000
O        0.98160000      -0.48930000      -0.70240000
C       -1.46480000      -0.43660000      -0.58380000
C       -1.60940000      -1.63000000      -1.45920000
C       -1.74810000      -1.80640000       0.04980000
C       -0.72770000      -2.59000000       0.78390000
O       -0.93090000      -3.12950000       1.84670000
H        0.87590000       1.62880000       0.95150000
H       -0.89100000       1.72090000       1.05790000
H       -0.04950000       0.31810000       1.72560000
H       -0.15630000       1.08750000      -1.24210000
H        1.39110000      -0.71260000       0.13910000
H       -2.32740000       0.22450000      -0.53620000
H       -2.50060000      -1.75020000      -2.06420000
H       -0.69650000      -2.02110000      -1.89600000
H       -2.74470000      -1.92990000       0.46110000
H        0.25540000      -2.67760000       0.27510000
