19
Properties=species:S:1:pos:R:3 gdb_89598=T pbc="F F F"
C       -0.44560000       1.30470000       0.69330000
C        0.09070000      -0.10630000       0.57490000
O        0.37710000      -0.50830000      -0.80410000
C        1.67880000      -0.96260000      -0.41320000
C        2.13270000      -2.26320000      -1.02610000
C        3.39480000      -2.74870000      -0.48320000
C        4.43310000      -3.14030000      -0.02210000
C        2.51530000       0.18680000       0.04310000
C        1.51910000      -0.45320000       0.99850000
H        0.27240000       2.04060000       0.32230000
H       -1.37090000       1.40720000       0.11750000
H       -0.66980000       1.53370000       1.74080000
H       -0.62390000      -0.82160000       1.00290000
H        1.34630000      -3.01440000      -0.87850000
H        2.22260000      -2.12420000      -2.11260000
H        5.35070000      -3.49600000       0.37650000
H        3.54920000      -0.05310000       0.26800000
H        2.34610000       1.17490000      -0.37470000
H        1.81320000      -0.89300000       1.94180000
