18
Properties=species:S:1:pos:R:3 gdb_32613=T pbc="F F F"
C        0.00380000       1.57800000       0.00840000
C        0.00940000       0.04790000       0.00330000
N       -1.33280000      -0.53490000       0.01280000
C       -1.98560000      -0.77040000       1.19720000
C       -3.25860000      -1.22730000       1.24600000
C       -4.03450000      -1.49370000       0.03250000
O       -5.19050000      -1.90700000       0.04100000
C       -3.27910000      -1.21970000      -1.19220000
C       -2.00550000      -0.76300000      -1.16190000
H        1.02980000       1.95830000       0.00090000
H       -0.51420000       1.97070000      -0.87150000
H       -0.49910000       1.96490000       0.89950000
H        0.53090000      -0.33020000      -0.88110000
H        0.54580000      -0.33600000       0.87620000
H       -1.40190000      -0.56990000       2.08900000
H       -3.73000000      -1.41180000       2.20380000
H       -3.76660000      -1.39820000      -2.14300000
H       -1.43690000      -0.55690000      -2.06220000
