10
Properties=species:S:1:pos:R:3 gdb_131035=T pbc="F F F"
O       -0.07360000      -0.01200000       0.26220000
C       -0.01920000       1.16860000       0.14010000
N        1.21570000       1.88840000       0.00120000
N        2.35930000       1.19540000      -0.30550000
N        3.42240000       1.86340000      -0.35990000
C        3.35950000       3.23240000       0.03840000
O        4.27280000       3.78500000       0.57520000
N        2.14570000       3.90790000      -0.28940000
N        1.08910000       3.22860000      -0.23330000
H       -0.85760000       1.88170000       0.13780000
