22
Properties=species:S:1:pos:R:3 gdb_26367=T pbc="F F F"
C       -0.04800000       1.55170000       0.03840000
C        0.04390000       0.02010000       0.01240000
C        0.69960000      -0.49640000      -1.27540000
N        0.73010000      -0.49110000       1.19980000
C        2.04190000      -0.22160000       1.52620000
C        2.34120000      -0.86700000       2.70070000
C        1.16760000      -1.55660000       3.10650000
C        0.18610000      -1.31290000       2.16940000
C       -1.22520000      -1.80490000       2.13290000
H        0.94550000       2.00760000      -0.01480000
H       -0.62990000       1.91160000      -0.81580000
H       -0.52980000       1.89690000       0.95710000
H       -0.97220000      -0.38050000       0.05850000
H        1.72100000      -0.11700000      -1.37770000
H        0.74270000      -1.58890000      -1.27870000
H        0.12910000      -0.16820000      -2.14980000
H        2.65010000       0.40620000       0.89510000
H        3.29310000      -0.84580000       3.20910000
H        1.04440000      -2.16800000       3.98820000
H       -1.96240000      -0.99220000       2.15810000
H       -1.44350000      -2.41360000       1.24610000
H       -1.40450000      -2.43250000       3.00910000
