23
Properties=species:S:1:pos:R:3 gdb_94848=T pbc="F F F"
C        0.14510000       1.60540000       0.07340000
C        0.02580000       0.08490000      -0.01980000
C        0.79780000      -0.54350000      -1.20030000
C        0.96830000      -2.00530000      -0.77270000
C        1.36910000      -1.88370000       0.70230000
C        1.48220000      -3.17480000       1.54370000
C        2.99820000      -2.91280000       1.50630000
O        2.81030000      -1.65680000       0.82820000
C        0.56230000      -0.67720000       1.22660000
H        1.19100000       1.90640000       0.20300000
H       -0.23240000       2.09010000      -0.83370000
H       -0.42310000       2.00110000       0.92220000
H       -1.03510000      -0.16940000      -0.14540000
H        0.28430000      -0.42050000      -2.15840000
H        1.78650000      -0.07630000      -1.28950000
H        0.00900000      -2.53620000      -0.84460000
H        1.71010000      -2.56400000      -1.34950000
H        1.03360000      -3.10370000       2.53680000
H        1.13430000      -4.08860000       1.05740000
H        3.49640000      -2.78570000       2.47470000
H        3.57890000      -3.62370000       0.90380000
H        1.23170000      -0.05310000       1.82670000
H       -0.25190000      -1.00390000       1.88140000
