20
Properties=species:S:1:pos:R:3 gdb_36365=T pbc="F F F"
C       -0.92410000       0.26460000      -0.79610000
C       -0.10500000       0.61700000       0.01180000
C        0.92590000       1.01000000       0.97800000
N        1.88000000       2.06090000       0.59840000
C        1.97800000       2.51880000      -0.78450000
C        1.42740000       3.41780000       0.27110000
C       -0.00890000       3.83330000       0.29330000
C       -0.55280000       4.54820000       1.51180000
C       -0.34500000       5.30450000       0.22640000
H       -1.65650000      -0.04660000      -1.49960000
H        0.44790000       1.31850000       1.91520000
H        1.51890000       0.11740000       1.21460000
H        2.98770000       2.65170000      -1.16550000
H        1.26690000       2.11720000      -1.50350000
H        2.09480000       4.17650000       0.68330000
H       -0.69420000       3.16370000      -0.21260000
H       -1.56690000       4.32710000       1.82550000
H        0.13400000       4.74440000       2.32880000
H        0.47850000       6.00990000       0.18050000
H       -1.21530000       5.60240000      -0.34730000
