17
Properties=species:S:1:pos:R:3 gdb_98556=T pbc="F F F"
O       -0.01190000       1.29010000       0.51600000
C       -0.25020000      -0.07610000       0.67370000
C       -1.26360000      -0.56960000      -0.34520000
O       -1.75460000       0.20700000      -1.14470000
C       -1.62590000      -1.99570000      -0.31160000
C       -2.22450000      -2.77030000      -1.45380000
C       -3.00270000      -2.65640000      -0.17720000
C       -2.33130000      -3.48160000       0.91660000
O       -1.03660000      -2.86830000       0.65440000
H       -0.58380000       1.56290000      -0.21980000
H        0.67180000      -0.66930000       0.55840000
H       -0.63140000      -0.31360000       1.68000000
H       -2.58760000      -2.15290000      -2.26780000
H       -1.74770000      -3.70590000      -1.73180000
H       -3.96730000      -2.17240000      -0.11300000
H       -2.67290000      -3.23440000       1.92680000
H       -2.30660000      -4.56880000       0.78440000
