21
Properties=species:S:1:pos:R:3 gdb_86218=T pbc="F F F"
C        0.64560000       1.44730000      -0.05710000
C       -0.10040000       0.11090000      -0.12360000
C        0.38810000      -0.77380000      -1.30900000
C        0.98980000      -2.03590000      -0.63570000
C        2.16750000      -2.56590000      -1.33190000
N        3.08410000      -2.99480000      -1.88980000
N        1.30960000      -1.59260000       0.71920000
C        1.64120000      -2.65970000       1.64510000
C        0.16890000      -0.77100000       1.11190000
H        1.71630000       1.27870000       0.09730000
H        0.52210000       2.01550000      -0.98490000
H        0.27490000       2.06620000       0.76650000
H       -1.17300000       0.30510000      -0.21360000
H       -0.41490000      -1.05040000      -1.99490000
H        1.15370000      -0.25550000      -1.89030000
H        0.23160000      -2.84480000      -0.62750000
H        2.51230000      -3.21190000       1.28130000
H        1.89330000      -2.23170000       2.61960000
H        0.80980000      -3.37600000       1.78820000
H        0.41180000      -0.19150000       2.00830000
H       -0.71700000      -1.39360000       1.34740000
