19
Properties=species:S:1:pos:R:3 gdb_43705=T pbc="F F F"
O       -0.00990000       0.10920000      -0.69550000
C       -0.01640000       1.18220000      -0.16580000
C       -1.13410000       2.11910000       0.32030000
C       -0.02800000       3.10930000       0.78580000
C        1.08990000       2.14840000       0.28810000
C       -0.05230000       4.63460000       0.48940000
C       -1.11150000       4.76170000       1.62420000
C       -0.01690000       3.80150000       2.17710000
C        1.03550000       4.78990000       1.59310000
H       -1.79250000       2.46870000      -0.48220000
H       -1.75900000       1.68390000       1.10740000
H        1.74860000       1.73010000       1.05660000
H        1.71530000       2.51480000      -0.53300000
H       -0.07280000       5.10990000      -0.49340000
H       -1.18650000       5.73890000       2.10820000
H       -2.09880000       4.33500000       1.43430000
H        0.00360000       3.31030000       3.15210000
H        2.02780000       4.38930000       1.37450000
H        1.09870000       5.76900000       2.07510000
