21
Properties=species:S:1:pos:R:3 gdb_79851=T pbc="F F F"
C       -0.18690000       1.57960000      -0.00030000
C        0.00830000       0.07100000       0.00160000
C        1.24460000      -0.58050000      -0.67950000
C        2.14270000      -0.16830000       0.52850000
C        3.20760000      -1.24530000       0.76270000
C        2.35440000      -2.51550000       0.52430000
C        1.00650000      -1.86000000       0.21150000
O       -0.08950000      -2.69900000       0.00170000
C        0.78530000      -0.63790000       1.14970000
H        0.72330000       2.13210000       0.24900000
H       -0.52240000       1.92300000      -0.98560000
H       -0.95780000       1.86880000       0.72310000
H       -0.92980000      -0.43240000      -0.24780000
H        1.52280000      -0.56030000      -1.73710000
H        2.44070000       0.87260000       0.63700000
H        4.04310000      -1.15570000       0.06110000
H        3.62250000      -1.20040000       1.77450000
H        2.71540000      -3.12380000      -0.31360000
H        2.28700000      -3.16700000       1.40090000
H        0.13370000      -3.31350000      -0.70530000
H        0.53010000      -0.68110000       2.21150000
