20
Properties=species:S:1:pos:R:3 gdb_51626=T pbc="F F F"
N       -0.05690000       1.26140000       0.12110000
C       -0.03510000       0.00220000       0.02550000
O       -1.18390000      -0.69280000      -0.03400000
C       -1.09880000      -2.11960000       0.00310000
C       -1.30230000      -2.70630000       1.43850000
C       -2.59430000      -3.50760000       1.18570000
C       -2.26710000      -4.19650000      -0.17220000
C       -2.31630000      -2.73170000      -0.69840000
C       -3.44280000      -2.50330000       0.35260000
H        0.89480000       1.62260000       0.12640000
H        0.86300000      -0.63000000      -0.03190000
H       -0.15350000      -2.43310000      -0.45520000
H       -0.46700000      -3.33690000       1.75710000
H       -1.43090000      -1.90230000       2.16780000
H       -3.01320000      -4.05830000       2.02780000
H       -1.32710000      -4.75150000      -0.25890000
H       -3.09400000      -4.79750000      -0.55610000
H       -2.44020000      -2.48990000      -1.75350000
H       -4.39520000      -2.92890000       0.02990000
H       -3.58490000      -1.49170000       0.73850000
