19
Properties=species:S:1:pos:R:3 gdb_61285=T pbc="F F F"
C        0.02880000       1.54970000      -0.02170000
C       -0.03400000       0.02670000      -0.01520000
C        0.72440000      -0.58350000      -1.20490000
C        0.63310000      -2.04160000      -1.24480000
N        0.55250000      -3.19350000      -1.27740000
O        0.60380000      -0.50690000       1.15690000
C       -0.13460000      -0.61300000       2.28730000
C        0.67660000      -1.28390000       3.36420000
N       -1.32810000      -0.18550000       2.33730000
H        1.06630000       1.89540000       0.02890000
H       -0.42690000       1.94730000      -0.93400000
H       -0.52080000       1.94120000       0.83560000
H       -1.07570000      -0.30390000      -0.02060000
H        0.32230000      -0.17690000      -2.13870000
H        1.78050000      -0.29640000      -1.15090000
H        0.10950000      -1.35490000       4.29340000
H        0.96750000      -2.28780000       3.04040000
H        1.59780000      -0.72250000       3.54690000
H       -1.73560000      -0.36220000       3.25200000
