19
Properties=species:S:1:pos:R:3 gdb_32226=T pbc="F F F"
C        0.03960000       1.44010000      -0.01640000
N        0.00760000      -0.00600000       0.09210000
C       -1.22030000      -0.67950000       0.05460000
C       -2.46080000      -0.04240000       0.10430000
C       -3.64510000      -0.78150000       0.07410000
C       -3.60100000      -2.16570000      -0.01840000
C       -2.36560000      -2.81450000      -0.05020000
C       -1.17820000      -2.09290000      -0.00630000
N        0.09120000      -2.70710000      -0.07230000
H        1.08150000       1.76870000      -0.03850000
H       -0.46760000       1.82940000      -0.91380000
H       -0.43400000       1.89490000       0.85980000
H        0.69220000      -0.46340000      -0.49770000
H       -2.50820000       1.03870000       0.15590000
H       -4.59780000      -0.26400000       0.11110000
H       -4.51600000      -2.74690000      -0.05000000
H       -2.31980000      -3.89930000      -0.09940000
H        0.03900000      -3.71400000       0.01390000
H        0.72570000      -2.33920000       0.62960000
