17
Properties=species:S:1:pos:R:3 gdb_70235=T pbc="F F F"
C       -0.06130000       1.56280000       0.05780000
C        0.09840000       0.06680000      -0.00440000
N       -0.76070000      -0.82290000       0.83530000
C        0.69780000      -0.78790000       1.06440000
C        1.44030000      -1.94760000       0.41500000
C        1.15970000      -1.72790000      -1.06810000
C        0.44740000      -0.61170000      -1.28880000
C        1.60410000      -2.63560000      -2.06620000
N        1.98980000      -3.38960000      -2.85710000
H        0.81370000       2.07180000      -0.35960000
H       -0.94040000       1.88930000      -0.50900000
H       -0.18440000       1.89970000       1.09200000
H       -1.21130000      -0.24950000       1.54790000
H        1.07370000      -0.35660000       1.98610000
H        2.51610000      -1.91770000       0.62300000
H        1.06490000      -2.91830000       0.75510000
H        0.14120000      -0.25110000      -2.26320000
