16
Properties=species:S:1:pos:R:3 gdb_18464=T pbc="F F F"
O        0.09960000       1.27520000       0.34300000
C        0.06530000      -0.03200000      -0.20430000
C       -1.32060000      -0.63990000      -0.11310000
C       -1.66100000      -2.08770000      -0.10600000
C       -0.59680000      -2.93030000       0.61680000
C       -0.88190000      -2.07520000       1.88040000
O       -0.54400000      -2.17400000       3.02620000
C       -1.90440000      -1.23300000       1.17430000
H       -0.12050000       1.20310000       1.27820000
H        0.34590000       0.08040000      -1.25730000
H        0.81780000      -0.68060000       0.26440000
H       -2.06500000      -0.02510000      -0.61570000
H       -2.42990000      -2.50030000      -0.74610000
H       -0.92160000      -3.95890000       0.80150000
H        0.41760000      -2.94840000       0.21120000
H       -2.82080000      -0.84550000       1.60240000
