12
Properties=species:S:1:pos:R:3 gdb_48143=T pbc="F F F"
O       -0.86950000       1.42670000       0.39860000
C        0.05750000       1.01470000      -0.24590000
C        1.38780000       1.77170000      -0.36940000
O        2.27630000       1.30400000      -1.03050000
C        1.45040000       3.09850000       0.39230000
C        2.71390000       3.79040000       0.25870000
C        3.76990000       4.36270000       0.14360000
C        4.96170000       5.01720000       0.01880000
N        5.97400000       5.57700000      -0.08480000
H        0.04800000       0.06000000      -0.80930000
H        0.61630000       3.72420000       0.04650000
H        1.21990000       2.89210000       1.44630000
