12
Properties=species:S:1:pos:R:3 gdb_23936=T pbc="F F F"
N        0.12790000      -3.71600000      -0.01960000
C        0.07660000      -2.55390000      -0.01240000
C        0.02210000      -1.19400000      -0.00410000
C       -0.02780000       0.01850000       0.00340000
C       -0.08450000       1.41360000       0.01190000
C       -1.14970000       2.30170000       0.03080000
N       -0.70730000       3.58940000       0.03220000
C        0.60960000       3.51050000       0.01460000
N        1.04140000       2.22640000       0.00170000
H       -2.19980000       2.05430000       0.04320000
H        1.29150000       4.34760000       0.01030000
H        1.99540000       1.90380000      -0.01250000
