17
Properties=species:S:1:pos:R:3 gdb_45819=T pbc="F F F"
O       -0.24850000       0.58070000       1.20310000
C       -0.14760000       1.32510000       0.25720000
C       -1.33560000       1.71380000      -0.61370000
C       -1.35210000       3.20340000      -0.87480000
C       -0.25630000       3.96160000      -0.87850000
C        1.11120000       3.40060000      -0.66820000
O        1.77690000       3.90020000       0.52490000
C        1.99460000       2.56260000       1.02570000
C        1.17890000       1.95210000      -0.12980000
H       -1.27510000       1.15740000      -1.56180000
H       -2.24880000       1.38020000      -0.11400000
H       -2.32520000       3.65330000      -1.05320000
H       -0.32350000       5.03200000      -1.05320000
H        1.74480000       3.58380000      -1.54830000
H        3.05890000       2.29910000       1.03270000
H        1.57490000       2.41050000       2.02510000
H        1.71720000       1.24380000      -0.76690000
