17
Properties=species:S:1:pos:R:3 gdb_52463=T pbc="F F F"
O        0.61250000       0.04540000       0.03130000
C        0.48320000       1.21760000      -0.14320000
O        0.97470000       2.14050000       0.70880000
C        0.79290000       3.52170000       0.38660000
C        2.12350000       4.14570000      -0.02470000
C        1.99790000       5.64750000      -0.26540000
O        3.23450000       6.17350000      -0.75380000
C        3.96480000       6.95300000       0.06980000
O        5.01960000       7.41160000      -0.24380000
H       -0.05030000       1.67060000      -1.00280000
H        0.04470000       3.62750000      -0.41070000
H        0.39170000       3.99970000       1.28630000
H        2.86540000       3.95720000       0.75860000
H        2.49090000       3.66560000      -0.93800000
H        1.24470000       5.86510000      -1.02980000
H        1.70250000       6.17080000       0.65420000
H        3.47330000       7.11810000       1.04940000
