19
Properties=species:S:1:pos:R:3 gdb_72532=T pbc="F F F"
C        0.05040000       1.49770000       0.01480000
C       -0.03320000      -0.01200000       0.00040000
O        0.64900000      -0.47050000      -1.17080000
C        0.67620000      -1.89590000      -1.25310000
C       -0.04390000      -2.49160000      -0.02410000
C        0.69110000      -1.92020000       1.20770000
O        0.66350000      -0.49350000       1.15370000
C       -1.44110000      -1.92520000      -0.00990000
C       -1.43420000      -0.59290000       0.00330000
H        1.09790000       1.80420000       0.01000000
H       -0.44590000       1.90630000      -0.86840000
H       -0.43260000       1.88840000       0.91340000
H        0.19370000      -2.21240000      -2.18660000
H        1.72430000      -2.22380000      -1.27270000
H       -0.00340000      -3.58270000      -0.03510000
H        0.21980000      -2.25490000       2.14050000
H        1.73930000      -2.24850000       1.20830000
H       -2.32740000      -2.54910000      -0.01070000
H       -2.30740000       0.04900000       0.01500000
