16
Properties=species:S:1:pos:R:3 gdb_66966=T pbc="F F F"
N        0.03940000       1.42950000      -0.07490000
C        0.08690000       0.01960000      -0.04500000
C       -0.05330000      -0.87030000      -1.29970000
C        0.59080000      -2.19700000      -0.95130000
N        0.02410000      -2.05670000       0.45590000
C       -0.98260000      -1.04460000      -0.13310000
C        0.79890000      -0.85510000       0.99190000
C        2.25570000      -0.94970000       1.01710000
N        3.41050000      -1.00800000       1.02050000
H        0.12230000       1.82580000      -1.00000000
H       -0.75970000       1.82700000       0.40090000
H       -0.25900000      -0.42090000      -2.26410000
H        0.10330000      -3.04590000      -1.43590000
H        1.67730000      -2.31040000      -1.00140000
H       -2.05340000      -1.06120000       0.00890000
H        0.43690000      -0.64350000       2.00200000
