17
Properties=species:S:1:pos:R:3 gdb_71176=T pbc="F F F"
C       -0.02950000       1.56240000       0.02520000
C        0.02290000       0.06050000       0.06710000
C       -1.25960000      -0.81380000       0.18670000
C       -0.34840000      -1.88250000       0.78040000
C        0.68450000      -0.89120000       1.15070000
N        0.98310000      -1.87480000       0.06720000
C        0.87570000      -0.76200000      -0.93640000
C        0.32350000      -1.09210000      -2.24930000
N       -0.13200000      -1.33250000      -3.28430000
H        0.97490000       1.99910000       0.02870000
H       -0.54180000       1.90370000      -0.88150000
H       -0.57390000       1.96230000       0.88660000
H       -1.93170000      -0.41490000       0.95090000
H       -1.81760000      -1.03040000      -0.72890000
H       -0.60790000      -2.81550000       1.26140000
H        1.31170000      -0.73710000       2.01830000
H        1.87550000      -0.33670000      -1.06360000
