19
Properties=species:S:1:pos:R:3 gdb_22150=T pbc="F F F"
C        0.43170000       1.51080000       0.03850000
C        0.08080000       0.04660000       0.06530000
C        0.25600000      -0.74060000       1.33640000
C        1.74370000      -0.95090000       1.68880000
N        1.93540000      -1.58520000       2.98300000
C        1.99080000      -0.86560000       4.13450000
O        1.93720000       0.34550000       4.19630000
N       -0.36380000      -0.60190000      -0.94360000
O       -0.47440000       0.22120000      -2.07730000
H        1.23540000       1.70380000      -0.68000000
H       -0.42920000       2.09660000      -0.29910000
H        0.74160000       1.86460000       1.02370000
H       -0.21380000      -0.20180000       2.16780000
H       -0.24120000      -1.70860000       1.22900000
H        2.22620000      -1.56350000       0.92140000
H        2.25930000       0.01170000       1.72860000
H        1.91240000      -2.59020000       3.04660000
H        2.10560000      -1.51410000       5.02570000
H       -0.83510000      -0.38550000      -2.73220000
