19
Properties=species:S:1:pos:R:3 gdb_74643=T pbc="F F F"
C       -0.05130000       1.50720000       0.02600000
C       -0.01990000       0.02030000      -0.04570000
C       -0.03730000      -0.83650000      -1.06940000
C        0.03840000      -2.20470000      -0.40950000
C       -0.85720000      -2.16030000       0.88020000
C        0.15400000      -3.06550000       1.62290000
C        1.03010000      -2.08430000       0.80690000
C        0.06510000      -0.90770000       1.17430000
O        0.17890000      -0.35660000       2.45020000
H        0.81680000       1.89460000       0.57300000
H       -0.06030000       1.95550000      -0.97100000
H       -0.93900000       1.87050000       0.56200000
H       -0.08560000      -0.63530000      -2.13080000
H        0.05110000      -3.11180000      -1.01220000
H       -1.95060000      -2.18780000       0.91060000
H        0.19490000      -2.96030000       2.70830000
H        0.18390000      -4.11550000       1.31960000
H        2.12020000      -2.02530000       0.75250000
H       -0.63570000       0.11450000       2.65420000
