23
Properties=species:S:1:pos:R:3 gdb_120552=T pbc="F F F"
C        0.58420000       1.33710000       0.19400000
C        0.32180000      -0.16240000       0.03440000
C        0.69910000      -0.69440000      -1.35280000
C        0.48200000      -2.19070000      -1.48850000
C        1.06580000      -2.91310000      -2.72350000
C        1.87120000      -3.73530000      -1.69890000
C        3.38610000      -3.62430000      -1.70900000
O        3.92080000      -4.05390000      -0.47350000
O        1.32910000      -2.96590000      -0.59280000
H        1.64370000       1.57200000       0.04370000
H        0.01080000       1.92120000      -0.53480000
H        0.30520000       1.68600000       1.19310000
H        0.88650000      -0.72370000       0.78760000
H       -0.73860000      -0.37370000       0.22540000
H        0.10440000      -0.18860000      -2.12690000
H        1.75230000      -0.46780000      -1.56500000
H       -0.57310000      -2.43440000      -1.29950000
H        0.35400000      -3.47120000      -3.33240000
H        1.67440000      -2.27670000      -3.37160000
H        1.57540000      -4.78850000      -1.61050000
H        3.81190000      -4.26520000      -2.48980000
H        3.67260000      -2.58300000      -1.93340000
H        3.42850000      -3.57340000       0.20400000
