18
Properties=species:S:1:pos:R:3 gdb_93407=T pbc="F F F"
C       -0.11590000       1.54250000      -0.02650000
C        0.03300000       0.01540000       0.03510000
C        0.77800000      -0.49150000      -1.20070000
O        0.99890000      -1.89560000      -1.18720000
C        1.56730000      -2.43400000      -0.05600000
O        2.03230000      -3.54490000      -0.11740000
C        1.52050000      -1.61910000       1.15250000
C        0.76610000      -0.49970000       1.25840000
N        0.54490000       0.14660000       2.44530000
H        0.85510000       2.04470000       0.04240000
H       -0.57590000       1.83610000      -0.97480000
H       -0.76340000       1.92540000       0.76830000
H       -0.97160000      -0.43110000       0.04320000
H        0.20180000      -0.28870000      -2.10730000
H        1.74180000       0.03250000      -1.28310000
H        2.03350000      -2.04000000       2.01010000
H        1.11020000      -0.12800000       3.23400000
H        0.30830000       1.12440000       2.42210000
