17
Properties=species:S:1:pos:R:3 gdb_73069=T pbc="F F F"
O       -0.03030000       1.34050000       0.39860000
C       -0.10560000      -0.01270000       0.16910000
C        0.79050000      -0.78090000      -0.80580000
N       -0.32160000      -1.76210000      -1.08520000
C       -1.24460000      -0.94030000      -0.27560000
C       -0.75240000      -0.96220000       1.14220000
N       -0.07450000      -2.09380000       1.69550000
C        0.90530000      -1.91340000       2.61920000
O        1.19930000      -0.83680000       3.10160000
H        0.37130000       1.45770000       1.26930000
H        1.03520000      -0.16720000      -1.67690000
H        1.70220000      -1.23970000      -0.40870000
H       -0.58130000      -1.72340000      -2.06530000
H       -2.28320000      -0.78920000      -0.54490000
H       -1.40480000      -0.43920000       1.83730000
H       -0.14210000      -2.96970000       1.19860000
H        1.40060000      -2.86190000       2.90420000
