22
Properties=species:S:1:pos:R:3 gdb_56162=T pbc="F F F"
C        0.37800000      -3.97270000       3.59590000
C        0.14510000      -3.11170000       2.36250000
O        0.56130000      -1.96930000       2.28830000
N       -0.55300000      -3.71830000       1.35580000
C       -0.90190000      -3.04600000       0.11440000
C       -2.40330000      -2.92810000      -0.09500000
C       -3.13260000      -2.08750000       0.93480000
C       -2.88670000      -2.89150000      -1.52270000
C       -3.11730000      -4.12660000      -0.68350000
H        1.45490000      -4.06470000       3.76040000
H       -0.04070000      -3.45970000       4.46570000
H       -0.05770000      -4.97310000       3.52780000
H       -0.89930000      -4.65260000       1.49900000
H       -0.43610000      -2.05850000       0.17020000
H       -0.45400000      -3.58090000      -0.73340000
H       -2.75910000      -1.05740000       0.93720000
H       -4.20690000      -2.05710000       0.72940000
H       -2.99470000      -2.49080000       1.94340000
H       -3.74020000      -2.26280000      -1.75270000
H       -2.15190000      -2.94730000      -2.31940000
H       -2.53700000      -5.01320000      -0.92150000
H       -4.12740000      -4.33710000      -0.34850000
