16
Properties=species:S:1:pos:R:3 gdb_67576=T pbc="F F F"
O       -0.09600000       1.37680000      -0.03450000
C       -0.04690000       0.00430000      -0.06580000
C       -1.34470000      -0.75220000       0.08520000
C       -1.73550000      -1.68160000      -1.00670000
N       -0.88870000      -2.16800000       0.09890000
C        0.55000000      -1.98770000      -0.14340000
C        0.87930000      -0.76880000      -1.06270000
O        2.06570000      -0.43740000      -0.25790000
C        1.05510000      -0.81480000       0.73550000
H        0.82120000       1.67900000      -0.09960000
H       -2.05290000      -0.44020000       0.84650000
H       -2.73910000      -2.09600000      -1.01030000
H       -1.29450000      -1.55660000      -1.99180000
H        1.13700000      -2.89920000      -0.22780000
H        0.97500000      -0.69080000      -2.14550000
H        1.33290000      -0.79150000       1.78950000
