15
Properties=species:S:1:pos:R:3 gdb_132777=T pbc="F F F"
N        0.00570000       1.42890000      -0.15590000
C        0.03820000       0.03890000      -0.06780000
C       -1.17080000      -0.67210000      -0.10080000
O       -2.34300000       0.03070000      -0.15130000
C       -1.14680000      -2.05930000      -0.07120000
F       -2.34900000      -2.67760000      -0.09860000
C        0.02720000      -2.78980000      -0.00770000
C        1.22590000      -2.08050000       0.02890000
C        1.23200000      -0.68910000      -0.00040000
H        0.78890000       1.89730000       0.27480000
H       -0.87920000       1.83460000       0.11340000
H       -3.06640000      -0.60720000      -0.14510000
H       -0.01230000      -3.87140000       0.01310000
H        2.16550000      -2.61870000       0.08070000
H        2.17290000      -0.14850000       0.02430000
