19
Properties=species:S:1:pos:R:3 gdb_38402=T pbc="F F F"
C        0.08030000       1.44110000      -0.04780000
C        1.32200000       0.64540000       0.04350000
N       -0.04730000      -0.01790000       0.09840000
C        0.23150000      -0.57770000      -1.27180000
C        1.66810000       0.00430000      -1.29390000
C        2.25840000       0.71820000      -2.53670000
N        3.33290000      -0.32500000      -2.70860000
C        4.12590000      -0.26640000      -1.46930000
C        2.82880000      -0.97210000      -1.42740000
H       -0.23270000       1.98550000       0.83790000
H       -0.20280000       1.90640000      -0.99070000
H        1.97570000       0.67800000       0.91030000
H        0.20480000      -1.66980000      -1.24500000
H       -0.46130000      -0.22070000      -2.04280000
H        1.58730000       0.70930000      -3.39900000
H        2.64710000       1.73300000      -2.39340000
H        5.02500000      -0.87350000      -1.51080000
H        4.24620000       0.68980000      -0.96240000
H        2.75360000      -2.05070000      -1.32120000
