18
Properties=species:S:1:pos:R:3 gdb_19717=T pbc="F F F"
C       -0.05630000       1.48900000       0.12230000
C        1.29380000       0.82110000      -0.02080000
C        0.01790000      -0.00890000       0.02810000
C       -0.00640000      -0.63910000      -1.38130000
C        1.48060000      -0.98190000      -1.58230000
C        1.88560000       0.50940000      -1.41750000
C        0.99640000       1.10590000      -2.51380000
O       -0.23830000       0.36910000      -2.38120000
H       -0.27760000       1.90390000       1.10080000
H       -0.49820000       2.03480000      -0.70120000
H        1.97980000       0.86010000       0.81800000
H       -0.24970000      -0.62720000       0.87830000
H       -0.74080000      -1.43200000      -1.52380000
H        1.88320000      -1.62180000      -0.79380000
H        1.70550000      -1.40680000      -2.56570000
H        2.94390000       0.74970000      -1.52230000
H        0.80130000       2.17620000      -2.38790000
H        1.41730000       0.94470000      -3.51540000
