19
Properties=species:S:1:pos:R:3 gdb_84531=T pbc="F F F"
C       -0.35160000       1.53320000      -0.01200000
C       -0.03230000       0.03110000      -0.01790000
C        0.67990000      -0.47500000      -1.25970000
C        1.73720000      -1.23500000      -0.96440000
C        1.94560000      -1.33400000       0.51250000
C        2.33760000      -0.03480000       1.23720000
C        2.97720000       1.11000000       0.54720000
O        3.69900000       1.89930000       1.11340000
C        0.87240000      -0.47040000       1.11310000
H        0.55200000       2.14150000      -0.10960000
H       -1.01950000       1.79020000      -0.84070000
H       -0.84940000       1.82000000       0.91930000
H       -0.99230000      -0.50090000       0.07310000
H        0.34910000      -0.21680000      -2.25990000
H        2.39440000      -1.71110000      -1.68290000
H        2.28260000      -2.26400000       0.95700000
H        2.73440000      -0.16610000       2.23950000
H        2.78030000       1.19590000      -0.53980000
H        0.40690000      -0.73250000       2.05590000
