19
Properties=species:S:1:pos:R:3 gdb_3215=T pbc="F F F"
C       -0.44720000       1.54090000       0.36310000
C       -0.11080000       0.06180000       0.20550000
C        0.28410000      -0.46250000      -1.18400000
C        1.60560000       0.10030000      -1.62700000
C        1.59450000      -1.02420000      -0.62950000
C        1.24600000      -0.51990000       0.77960000
C        2.23590000       0.39060000       1.49860000
H        0.33180000       2.19020000      -0.04760000
H       -1.38130000       1.77930000      -0.15800000
H       -0.57970000       1.80790000       1.41750000
H       -0.94080000      -0.53030000       0.60400000
H       -0.40020000      -0.91700000      -1.89130000
H        1.90980000      -0.18060000      -2.63050000
H        1.91600000       1.10290000      -1.34500000
H        2.06780000      -1.97480000      -0.84700000
H        1.01400000      -1.36840000       1.43120000
H        2.53460000       1.24600000       0.88530000
H        1.81130000       0.78210000       2.42980000
H        3.14650000      -0.16140000       1.75710000
