17
Properties=species:S:1:pos:R:3 gdb_128773=T pbc="F F F"
C       -0.18640000       1.37610000      -0.37910000
O       -0.21220000      -0.02820000      -0.50500000
C       -1.11740000      -0.64270000       0.40530000
C       -1.12410000      -2.11170000       0.15000000
C       -0.94400000      -2.77750000      -1.04900000
N       -0.74890000      -2.31070000      -2.34000000
N       -1.07510000      -4.08150000      -0.71090000
N       -1.31610000      -4.23090000       0.62390000
N       -1.34240000      -3.03670000       1.12680000
H        0.52680000       1.75830000      -1.11320000
H       -1.17460000       1.82130000      -0.57330000
H        0.13810000       1.68340000       0.62630000
H       -0.81830000      -0.45300000       1.44690000
H       -2.12090000      -0.20160000       0.27140000
H       -0.44260000      -1.34460000      -2.30680000
H       -0.10740000      -2.86760000      -2.89060000
H       -1.02460000      -4.89700000      -1.29960000
