18
Properties=species:S:1:pos:R:3 gdb_17098=T pbc="F F F"
O        0.08070000      -0.08580000      -0.07270000
C        0.04770000       1.11690000       0.00140000
C        1.26190000       2.00720000       0.03990000
C        1.26340000       3.12700000      -1.06620000
C        1.41510000       4.37260000      -0.17060000
C        2.47760000       3.90450000       0.86360000
C        1.34040000       2.92930000       1.28920000
C        0.36590000       4.09520000       0.94190000
H       -0.92920000       1.65340000       0.04620000
H        2.13920000       1.35890000      -0.02780000
H        2.09030000       2.99550000      -1.76840000
H        0.33330000       3.14630000      -1.64450000
H        1.48170000       5.33750000      -0.67330000
H        3.41280000       3.47550000       0.49130000
H        2.68370000       4.65790000       1.62740000
H        1.33490000       2.43760000       2.26210000
H        0.36290000       4.86460000       1.71710000
H       -0.66050000       3.86600000       0.64390000
