18
Properties=species:S:1:pos:R:3 gdb_55790=T pbc="F F F"
O       -0.03480000      -0.23040000       0.06130000
C       -0.03000000       1.08760000      -0.23290000
O        0.93480000       1.61530000      -0.70900000
C       -1.31820000       1.84660000       0.13140000
C       -2.56120000       1.01430000       0.07240000
C       -3.26800000       0.52060000       1.09260000
C       -4.44520000      -0.27780000       0.60430000
N       -4.15500000      -0.43630000      -0.82910000
H       -0.90740000      -0.47430000       0.40800000
H       -4.99150000      -0.43300000      -1.39650000
C       -3.19360000       0.59520000      -1.23730000
H       -1.17160000       2.23710000       1.14560000
H       -1.36790000       2.70910000      -0.53910000
H       -3.06580000       0.69050000       2.14400000
H       -4.53120000      -1.25460000       1.10090000
H       -5.38640000       0.26280000       0.81560000
H       -3.65180000       1.47560000      -1.72560000
H       -2.45870000       0.19390000      -1.94990000
