16
Properties=species:S:1:pos:R:3 gdb_129755=T pbc="F F F"
N       -0.06650000       1.45490000      -0.21750000
C       -0.04850000       0.07540000       0.05400000
C       -1.12090000      -0.75830000       0.23280000
O       -0.66830000      -1.98500000       0.46820000
N        0.79050000      -1.89870000       0.43130000
N        1.08150000      -0.70640000       0.19250000
C       -2.55650000      -0.49380000       0.20030000
C       -3.51850000      -1.53720000      -0.34360000
C       -3.49840000      -1.24770000       1.12480000
H        0.39320000       1.66610000      -1.09770000
H        0.41430000       1.98180000       0.50490000
H       -2.77960000       0.54680000      -0.00190000
H       -4.35030000      -1.17560000      -0.93710000
H       -3.08750000      -2.47240000      -0.68100000
H       -3.05370000      -1.98710000       1.78030000
H       -4.31600000      -0.68360000       1.55840000
