17
Properties=species:S:1:pos:R:3 gdb_73388=T pbc="F F F"
O       -0.08710000       1.31450000       0.00840000
C       -0.00340000      -0.06980000      -0.04660000
C        1.01830000      -0.72290000      -0.98170000
C        0.37870000      -2.08970000      -1.33920000
C       -0.74090000      -2.26520000      -0.29280000
C       -1.26230000      -0.83470000       0.01880000
C       -0.35230000      -0.79460000       1.28640000
C       -0.15620000      -2.26170000       1.14510000
O        0.16720000      -3.13950000       1.89840000
H        0.73020000       1.65260000       0.39090000
H        1.15110000      -0.08910000      -1.86310000
H        1.99560000      -0.83220000      -0.49990000
H       -0.05420000      -2.05630000      -2.34390000
H        1.09110000      -2.91840000      -1.31080000
H       -1.45930000      -3.05800000      -0.49870000
H       -2.26570000      -0.44590000      -0.07480000
H       -0.45690000      -0.20430000       2.18900000
