21
Properties=species:S:1:pos:R:3 gdb_69516=T pbc="F F F"
C       -0.06160000       1.57640000       0.11370000
C        0.02570000       0.07930000       0.04030000
C       -0.88320000      -0.86660000       0.77880000
C        0.60060000      -0.90680000       1.05150000
C        1.38250000      -1.60830000      -0.10630000
C        2.68150000      -2.33220000       0.02080000
O        0.42720000      -2.06730000      -1.08530000
C        0.82220000      -0.67980000      -1.09040000
C        1.32100000      -0.09230000      -2.37000000
H        0.91440000       2.05030000      -0.04580000
H       -0.75090000       1.97930000      -0.63880000
H       -0.42510000       1.89610000       1.09570000
H       -1.47240000      -0.40100000       1.56370000
H       -1.36350000      -1.69110000       0.26770000
H        1.03300000      -0.69020000       2.02060000
H        2.54450000      -3.28280000       0.54950000
H        3.10280000      -2.54850000      -0.96440000
H        3.40270000      -1.73500000       0.58890000
H        0.49190000       0.09080000      -3.06350000
H        1.82620000       0.86260000      -2.19350000
H        2.02340000      -0.77440000      -2.85630000
