18
Properties=species:S:1:pos:R:3 gdb_49991=T pbc="F F F"
O       -0.00260000      -0.04420000      -0.28780000
C        0.07870000       1.09480000       0.10130000
C        1.31150000       1.90900000       0.09350000
C        1.16880000       3.41820000      -0.12470000
C        1.54220000       2.90750000       1.21440000
C        0.76080000       3.11050000       2.54210000
C        2.11660000       3.36800000       3.21760000
N        2.91970000       2.13830000       3.02390000
C        2.84940000       3.15010000       1.93750000
H       -0.81490000       1.62980000       0.50420000
H        2.18240000       1.41190000      -0.32010000
H        1.92490000       3.89410000      -0.74020000
H        0.16380000       3.80640000      -0.26570000
H        0.11540000       3.99190000       2.51330000
H        0.20820000       2.25300000       2.93280000
H        2.32810000       4.05370000       4.02780000
H        3.80830000       2.28410000       3.50380000
H        3.74400000       3.61880000       1.54510000
