14
Properties=species:S:1:pos:R:3 gdb_98398=T pbc="F F F"
O       -0.04740000       1.44690000       0.06460000
C        0.01670000       0.04980000       0.02170000
C       -1.42240000      -0.46740000      -0.06030000
O       -2.36000000       0.27880000      -0.13900000
N       -1.61190000      -1.88460000      -0.01580000
C       -2.97210000      -2.34240000       0.05020000
O       -3.30380000      -3.48920000       0.01480000
C       -0.52460000      -2.79110000      -0.03000000
O       -0.60400000      -3.97300000       0.13400000
H        0.85330000       1.78450000       0.07490000
H        0.57390000      -0.31720000      -0.85620000
H        0.49800000      -0.38150000       0.91460000
H       -3.65380000      -1.48620000       0.12960000
H        0.43450000      -2.28420000      -0.22290000
