19
Properties=species:S:1:pos:R:3 gdb_84372=T pbc="F F F"
C        0.52880000       1.48470000       0.04030000
C        0.08800000       0.02030000       0.00370000
O       -1.33110000      -0.06660000      -0.01850000
C        0.74580000      -0.75130000      -1.19590000
O        1.07170000       0.03370000      -2.33440000
C        1.90690000      -1.47110000      -0.56180000
C        1.81540000      -1.48320000       0.76760000
C        0.58770000      -0.76190000       1.26250000
O        0.79460000       0.00860000       2.43510000
H        1.61980000       1.58110000       0.10530000
H        0.20840000       1.99750000      -0.87120000
H        0.08630000       1.97640000       0.90810000
H       -1.64370000       0.41740000      -0.79090000
H        0.00160000      -1.46770000      -1.56550000
H        1.83590000       0.57640000      -2.11270000
H        2.67380000      -1.95450000      -1.15810000
H        2.49500000      -1.97740000       1.45380000
H       -0.20370000      -1.46930000       1.53650000
H        1.58730000       0.54010000       2.30630000
