17
Properties=species:S:1:pos:R:3 gdb_115132=T pbc="F F F"
C       -0.12020000       1.47920000       0.03680000
O        0.00160000       0.08500000      -0.21010000
C       -1.16240000      -0.64840000       0.03620000
C       -1.04930000      -2.05030000      -0.58320000
N       -1.85530000      -2.87230000       0.31520000
C       -1.97710000      -2.37310000       1.59480000
N       -2.43000000      -2.88830000       2.66730000
C       -1.45230000      -0.94500000       1.52140000
O       -1.26820000      -0.20470000       2.44820000
H        0.83180000       1.92940000      -0.25240000
H       -0.92300000       1.91760000      -0.57600000
H       -0.32030000       1.68570000       1.09200000
H       -2.05390000      -0.13610000      -0.36870000
H       -1.43380000      -2.09250000      -1.60540000
H        0.00940000      -2.34160000      -0.59660000
H       -1.97750000      -3.85640000       0.13590000
H       -2.72020000      -3.85940000       2.52770000
