15
Properties=species:S:1:pos:R:3 gdb_79560=T pbc="F F F"
O       -0.12570000       1.39140000      -0.04280000
C       -0.07660000       0.00380000       0.04200000
C       -0.46420000      -0.76310000       1.28360000
C       -1.57560000      -0.06220000       2.03100000
N       -2.83890000      -0.78580000       2.00370000
C       -2.44180000      -0.06520000       0.78720000
C       -3.31200000       0.95370000       0.27980000
N       -4.01330000       1.76270000      -0.15630000
C       -1.35290000      -0.77100000       0.00210000
H        0.64890000       1.75310000       0.40090000
H        0.73450000      -0.46060000      -0.52320000
H        0.13790000      -1.57390000       1.67840000
H       -1.47290000       0.74030000       2.75010000
H       -2.71270000      -1.79010000       1.89430000
H       -1.52680000      -1.57680000      -0.70150000
