16
Properties=species:S:1:pos:R:3 gdb_133568=T pbc="F F F"
F        0.56830000       0.20380000      -0.04540000
C       -0.02220000       1.40970000      -0.01380000
F        0.91890000       2.31560000      -0.33510000
F       -0.93400000       1.42560000      -1.00270000
C       -0.66260000       1.75590000       1.30220000
C       -1.45130000       0.84840000       2.20270000
C       -0.84440000      -0.55600000       2.34180000
C        0.49670000       0.08490000       2.82650000
C       -0.13070000       1.47950000       2.67960000
H       -1.10570000       2.74550000       1.21960000
H       -2.46810000       1.11210000       2.46860000
H       -1.33170000      -1.12380000       3.13690000
H       -0.81130000      -1.17100000       1.44140000
H        0.70280000      -0.15100000       3.87230000
H        1.39260000      -0.11790000       2.23810000
H        0.02220000       2.30230000       3.36800000
