17
Properties=species:S:1:pos:R:3 gdb_72859=T pbc="F F F"
C       -0.59710000       1.57280000      -0.06010000
C       -0.08600000       0.15570000       0.01840000
C       -1.09470000      -0.99210000       0.28360000
O       -0.26470000      -1.53390000       1.34340000
C        0.71220000      -0.50740000       1.17780000
C        1.78690000      -0.91160000       0.11820000
N        1.01840000      -0.16960000      -0.91400000
C        3.14240000      -0.39660000       0.31680000
N        4.20460000       0.01520000       0.51190000
H        0.23390000       2.28220000      -0.04630000
H       -1.15350000       1.72690000      -0.99250000
H       -1.27060000       1.79550000       0.77330000
H       -2.06980000      -0.67610000       0.67330000
H       -1.24520000      -1.70190000      -0.53950000
H        1.03850000      -0.04740000       2.11140000
H        1.82630000      -2.00100000       0.00830000
H        0.77870000      -0.69610000      -1.74760000
