12
Properties=species:S:1:pos:R:3 gdb_132818=T pbc="F F F"
O        0.08460000       1.35770000       0.08240000
C        0.05730000       0.01060000       0.04920000
C        0.05100000      -0.68260000      -1.15710000
F        0.07280000       0.01520000      -2.30310000
C        0.02250000      -2.07170000      -1.13500000
F        0.01700000      -2.71440000      -2.29580000
N        0.00080000      -2.78530000      -0.03730000
C        0.00690000      -2.11730000       1.12610000
C        0.03440000      -0.73620000       1.22980000
H        0.09720000       1.68440000      -0.82660000
H       -0.01140000      -2.72950000       2.02250000
H        0.03850000      -0.23160000       2.18770000
