21
Properties=species:S:1:pos:R:3 gdb_95357=T pbc="F F F"
C       -0.22510000       1.51210000       0.12620000
C        0.00620000       0.00320000      -0.00990000
C        0.92080000      -0.39700000      -1.23070000
C        2.22340000      -1.00260000      -0.64050000
C        1.72360000      -1.64220000       0.66430000
O        2.65710000      -1.81670000       1.71760000
C        2.13700000      -1.19350000       2.89830000
C        0.98710000      -0.33280000       2.42420000
C        0.74380000      -0.60770000       1.14860000
H        0.72640000       2.04530000       0.22290000
H       -0.74990000       1.90640000      -0.74990000
H       -0.82930000       1.74270000       1.00970000
H       -0.97160000      -0.48090000      -0.13080000
H        0.40820000      -1.14080000      -1.84910000
H        1.12540000       0.46120000      -1.87680000
H        2.71470000      -1.69970000      -1.32410000
H        2.93950000      -0.21490000      -0.38300000
H        1.23480000      -2.60700000       0.43660000
H        1.82610000      -1.96050000       3.62820000
H        2.93310000      -0.60190000       3.37180000
H        0.51600000       0.41610000       3.04850000
