21
Properties=species:S:1:pos:R:3 gdb_81529=T pbc="F F F"
C       -0.10930000       1.62580000       0.61370000
C        0.06840000       0.13730000       0.34320000
C        1.29280000      -0.42220000      -0.45920000
C        2.16020000      -0.15040000       0.81020000
C        0.84430000      -0.79480000       1.33580000
C        0.97270000      -1.83090000       0.14600000
C       -0.24260000      -2.65550000      -0.30070000
C        2.11810000      -2.81940000       0.23550000
O        3.10660000      -2.82060000      -0.45400000
H        0.79820000       2.13630000       0.94230000
H       -0.46040000       2.13050000      -0.29340000
H       -0.87220000       1.77990000       1.38510000
H       -0.89470000      -0.25860000       0.01730000
H        1.55990000      -0.21250000      -1.49570000
H        3.08050000      -0.72350000       0.91010000
H        2.33340000       0.89120000       1.07410000
H        0.58160000      -1.02520000       2.37090000
H       -1.18690000      -2.11470000      -0.23540000
H       -0.11660000      -2.99140000      -1.33570000
H       -0.34150000      -3.55230000       0.32230000
H        1.95280000      -3.62630000       0.99070000
