19
Properties=species:S:1:pos:R:3 gdb_61891=T pbc="F F F"
O        0.48170000       1.38900000       0.23330000
C        0.13970000       0.02670000       0.04110000
C        0.78750000      -0.41330000      -1.27860000
C        0.30670000       0.40540000      -2.45940000
O       -0.11130000      -0.07180000      -3.48460000
C        0.61310000      -0.83110000       1.22820000
C       -0.18030000      -0.53930000       2.48250000
C        0.45190000      -0.17570000       3.75650000
O       -0.16260000       0.82870000       2.94200000
H        0.27920000       1.61450000       1.15140000
H       -0.95540000      -0.08540000      -0.05360000
H        1.87240000      -0.26330000      -1.18550000
H        0.59270000      -1.46900000      -1.48590000
H        0.36770000       1.50350000      -2.31370000
H        0.51020000      -1.89610000       0.98940000
H        1.67710000      -0.62630000       1.39270000
H       -1.17660000      -0.98130000       2.52130000
H       -0.05970000      -0.37650000       4.69570000
H        1.53770000      -0.12720000       3.81690000
