15
Properties=species:S:1:pos:R:3 gdb_46239=T pbc="F F F"
O       -0.10550000       0.00810000       0.18290000
C       -0.04540000       1.20210000       0.11840000
N       -1.00210000       2.19910000       0.08500000
C       -0.07580000       3.33210000       0.02240000
C        1.05090000       2.27590000       0.02240000
N        2.31600000       2.26520000       0.72220000
C        2.32150000       2.28230000      -0.76240000
C        2.81940000       1.12420000      -1.44930000
C        3.24430000       0.18110000      -2.06010000
H       -2.00910000       2.15890000       0.08240000
H       -0.15690000       3.93930000      -0.88520000
H       -0.09660000       3.97960000       0.90680000
H        2.53870000       3.19120000       1.08140000
H        2.55610000       3.23150000      -1.24250000
H        3.60520000      -0.66980000      -2.58290000
