18
Properties=species:S:1:pos:R:3 gdb_90470=T pbc="F F F"
O        0.55500000       0.57350000      -0.79960000
C       -0.04190000      -0.32120000       0.11810000
C        0.50010000      -0.19480000       1.57070000
C       -0.66360000      -0.51820000       2.48950000
C       -1.93440000      -0.50270000       1.67820000
C       -1.58510000      -0.16940000       0.23950000
C       -1.43790000      -1.81620000       2.27650000
C       -0.94210000      -2.90130000       1.47900000
N       -0.54640000      -3.78330000       0.84220000
H        0.37460000       1.47220000      -0.50220000
H        0.19750000      -1.31010000      -0.27580000
H        1.37900000      -0.82480000       1.73380000
H        0.80970000       0.84300000       1.74910000
H       -0.63970000      -0.15200000       3.50960000
H       -2.86340000      -0.12490000       2.09000000
H       -1.85930000       0.87560000       0.04530000
H       -2.11390000      -0.78210000      -0.49600000
H       -1.99560000      -2.15620000       3.14360000
