20
Properties=species:S:1:pos:R:3 gdb_89451=T pbc="F F F"
C       -0.08840000       1.57950000       0.19080000
N       -0.00540000       0.13850000       0.11950000
C       -1.23000000      -0.64120000       0.39230000
C       -0.40230000      -1.62200000       1.27040000
O       -0.87440000      -1.83400000       2.58070000
C        0.15830000      -2.90530000       0.60280000
C        1.62740000      -2.60240000       0.40700000
C        1.95170000      -1.34940000       0.72790000
C        0.74550000      -0.58290000       1.19140000
H        0.90750000       2.01630000       0.05870000
H       -0.72520000       1.95470000      -0.61800000
H       -0.50140000       1.95180000       1.14840000
H       -1.96400000      -0.10900000       1.01680000
H       -1.72900000      -1.03000000      -0.50390000
H       -1.57880000      -2.49030000       2.54460000
H        0.00170000      -3.77360000       1.25580000
H       -0.33460000      -3.13080000      -0.35190000
H        2.31900000      -3.34710000       0.02650000
H        2.94250000      -0.91730000       0.64480000
H        0.88590000       0.00910000       2.10550000
