23
Properties=species:S:1:pos:R:3 gdb_91380=T pbc="F F F"
C        0.08200000       1.64110000      -0.02110000
C        0.04470000       0.12270000       0.04470000
C        0.90900000      -0.70090000      -0.95730000
C        1.37550000      -1.62410000       0.21120000
C        2.87630000      -1.68590000       0.54330000
C        3.00500000      -0.75480000       1.77360000
C        4.28520000       0.05760000       1.85360000
O        1.89500000       0.14150000       1.68330000
C        0.77840000      -0.59190000       1.21110000
H        1.10650000       2.00410000       0.09500000
H       -0.30570000       1.99800000      -0.98170000
H       -0.52420000       2.09180000       0.77250000
H       -0.99180000      -0.23170000       0.01630000
H        0.37290000      -1.18420000      -1.77760000
H        1.73300000      -0.11880000      -1.38090000
H        0.88870000      -2.60070000       0.20800000
H        3.22360000      -2.69780000       0.77070000
H        3.48300000      -1.30830000      -0.28710000
H        2.89930000      -1.36080000       2.69030000
H        4.39980000       0.67540000       0.95730000
H        4.27340000       0.71580000       2.72680000
H        5.15300000      -0.60470000       1.93340000
H        0.16820000      -0.95460000       2.04980000
