19
Properties=species:S:1:pos:R:3 gdb_70572=T pbc="F F F"
C       -0.01300000       1.48880000      -0.03360000
C       -0.01250000      -0.02590000       0.01340000
C       -0.34160000      -0.72770000       1.31460000
C        1.06980000      -0.73670000       0.79170000
O        1.55980000      -1.95760000       0.31610000
C        1.77070000      -2.02700000      -1.08170000
C        0.52670000      -1.66930000      -1.87080000
O       -0.71550000      -2.07390000      -1.29070000
C       -0.39100000      -0.68030000      -1.29090000
H        0.62110000       1.86660000      -0.84440000
H       -1.02590000       1.87760000      -0.19180000
H        0.36070000       1.91030000       0.90390000
H       -0.57400000      -0.11480000       2.17900000
H       -0.87080000      -1.67030000       1.24360000
H        1.82390000      -0.13160000       1.29430000
H        2.59440000      -1.36860000      -1.40770000
H        2.07030000      -3.06080000      -1.28160000
H        0.60040000      -1.78650000      -2.95220000
H       -1.01510000      -0.07760000      -1.95120000
