18
Properties=species:S:1:pos:R:3 gdb_77106=T pbc="F F F"
O        0.28960000       0.82520000      -0.61960000
C       -0.02730000      -0.44590000      -0.13180000
C       -0.01430000      -0.66820000       1.42910000
C       -1.37860000      -1.42160000       1.28220000
C       -1.51740000      -0.77890000      -0.10180000
C       -2.58620000       0.19150000      -0.51390000
C       -2.41710000      -1.12030000      -1.24630000
C        1.11490000      -1.36440000       2.01350000
N        2.02550000      -1.93380000       2.44390000
H        1.23740000       0.87280000      -0.77950000
H        0.55670000      -1.23190000      -0.62940000
H       -0.15670000       0.29920000       1.91680000
H       -1.24130000      -2.50540000       1.24350000
H       -2.13590000      -1.18240000       2.03060000
H       -3.44570000       0.30700000       0.13860000
H       -2.26540000       1.09880000      -1.01270000
H       -1.99760000      -1.09380000      -2.24720000
H       -3.16240000      -1.89430000      -1.09360000
