17
Properties=species:S:1:pos:R:3 gdb_123403=T pbc="F F F"
C       -0.03530000       1.47090000      -0.30620000
C       -0.14120000      -0.04290000      -0.19710000
C       -0.19410000      -0.70250000       1.15560000
C       -1.42480000      -0.67040000       0.28300000
C        1.36600000       1.96860000      -0.17590000
C        2.24770000       2.52330000      -1.05360000
N        3.41030000       2.76630000      -0.36310000
N        3.29950000       2.41000000       0.83540000
O        1.97200000       1.87820000       1.00840000
H       -0.43150000       1.81210000      -1.26860000
H       -0.64930000       1.93490000       0.47510000
H        0.39850000      -0.57800000      -0.97330000
H        0.32330000      -1.64600000       1.28650000
H       -0.17170000      -0.06130000       2.02990000
H       -2.23510000      -0.00890000       0.57190000
H       -1.75180000      -1.59110000      -0.18680000
H        2.13950000       2.76240000      -2.09740000
