18
Properties=species:S:1:pos:R:3 gdb_12558=T pbc="F F F"
O       -0.31930000       1.49670000      -0.33600000
C       -0.02630000       0.13810000      -0.02630000
C       -1.39350000      -0.54600000       0.10710000
O       -1.31750000      -1.83190000       0.68140000
C       -0.92410000      -2.86800000      -0.19840000
C        0.58460000      -2.93230000      -0.46100000
C        1.15860000      -1.77250000      -1.23980000
C        0.88720000      -0.47960000      -1.06370000
H        0.50920000       1.98470000      -0.35910000
H        0.45790000       0.06510000       0.96350000
H       -2.00590000       0.06180000       0.77960000
H       -1.88490000      -0.57600000      -0.87720000
H       -1.24250000      -3.79870000       0.28360000
H       -1.46370000      -2.77860000      -1.15460000
H        1.09670000      -3.02370000       0.50790000
H        0.78800000      -3.86510000      -1.00020000
H        1.87930000      -2.03270000      -2.01190000
H        1.38530000       0.24590000      -1.70530000
