12
Properties=species:S:1:pos:R:3 gdb_132937=T pbc="F F F"
F       -0.01570000      -0.00960000       0.00370000
C       -0.03790000       1.31780000       0.01110000
C       -1.19320000       2.00260000       0.02960000
N       -1.19920000       3.37970000       0.03700000
C       -0.05200000       4.16060000       0.02640000
O       -0.07250000       5.37010000       0.03290000
N        1.10960000       3.40240000       0.00730000
C        1.25470000       2.00510000      -0.00190000
O        2.34170000       1.47520000      -0.01890000
H       -2.15520000       1.50700000       0.03940000
H       -2.06620000       3.89260000       0.05090000
H        1.97170000       3.93170000      -0.00110000
