20
Properties=species:S:1:pos:R:3 gdb_104900=T pbc="F F F"
C       -0.02540000       1.51050000      -0.04890000
C       -0.01690000      -0.00310000       0.06320000
C       -1.17590000      -0.66610000      -0.65730000
N        1.31090000      -0.63060000      -0.01160000
C        0.57600000      -0.67980000       1.28020000
C        1.24690000       0.05220000       2.43440000
N        2.41180000      -0.71780000       2.86340000
C        0.00800000      -1.95550000       1.66780000
N       -0.45920000      -2.96900000       1.97290000
H        0.90210000       1.95300000       0.31390000
H       -0.13840000       1.79590000      -1.10050000
H       -0.86660000       1.93940000       0.50530000
H       -1.11020000      -0.45580000      -1.73050000
H       -1.18870000      -1.74880000      -0.51500000
H       -2.13210000      -0.26970000      -0.30030000
H        1.25910000      -1.53340000      -0.47890000
H        1.47340000       1.07870000       2.11710000
H        0.54300000       0.11600000       3.27180000
H        3.10780000      -0.70220000       2.12360000
H        2.83490000      -0.29010000       3.68020000
