16
Properties=species:S:1:pos:R:3 gdb_1546=T pbc="F F F"
C        0.06320000       1.51120000      -0.01920000
C       -0.03050000      -0.00410000      -0.04240000
O        0.68490000      -0.46930000      -1.17960000
C        0.73390000      -1.87670000      -1.30240000
C       -0.50570000      -2.45630000      -2.00010000
C        1.95520000      -2.20740000      -2.06000000
N        2.90040000      -2.49980000      -2.65550000
H        1.10760000       1.82920000       0.03690000
H       -0.37760000       1.93650000      -0.92490000
H       -0.47150000       1.90900000       0.84820000
H        0.40510000      -0.43640000       0.87290000
H       -1.08330000      -0.32220000      -0.08680000
H        0.84120000      -2.33890000      -0.30750000
H       -0.41410000      -3.54050000      -2.10770000
H       -1.40040000      -2.24250000      -1.41030000
H       -0.61810000      -2.00980000      -2.99050000
