13
Properties=species:S:1:pos:R:3 gdb_16791=T pbc="F F F"
O        0.03430000       0.00910000      -0.13350000
C        0.00670000       1.20520000      -0.01230000
C       -1.23000000       2.09990000       0.04730000
C       -0.69640000       3.53160000       0.00680000
O       -1.33470000       4.54140000       0.04030000
N        0.75070000       3.52720000      -0.08530000
C        1.34460000       3.03050000       1.16850000
C        1.20260000       2.11820000      -0.00050000
H       -1.87330000       1.90560000      -0.81680000
H       -1.84200000       1.92680000       0.93730000
H        2.32360000       3.43620000       1.40070000
H        0.69320000       2.88730000       2.02740000
H        2.07540000       1.83370000      -0.57770000
