17
Properties=species:S:1:pos:R:3 gdb_107164=T pbc="F F F"
O        0.06370000       1.37330000      -0.34980000
C        0.06990000       0.01060000       0.04310000
C       -1.31410000      -0.50550000       0.27270000
C       -2.31480000      -0.16540000       1.39630000
C       -2.86890000      -1.60060000       1.21100000
C       -3.33310000      -2.54310000       2.22780000
O       -4.22190000      -1.99190000       1.24340000
C       -1.90810000      -1.84590000       0.06400000
O       -2.11320000      -0.79020000      -0.88860000
H       -0.44760000       1.43000000      -1.16470000
H        0.56950000      -0.62850000      -0.70010000
H        0.64710000      -0.03460000       0.97250000
H       -1.85970000      -0.00060000       2.37590000
H       -3.00280000       0.64680000       1.15720000
H       -3.12670000      -3.60780000       2.12360000
H       -3.49010000      -2.19650000       3.24830000
H       -1.48310000      -2.77350000      -0.30310000
