21
Properties=species:S:1:pos:R:3 gdb_91166=T pbc="F F F"
C       -0.18980000       1.51970000      -0.03130000
C        0.03990000       0.00920000      -0.01960000
C        0.91220000      -0.53060000      -1.20160000
C        2.03160000      -1.35440000      -0.48280000
C        2.89240000      -0.36460000       0.27190000
C        2.16580000       0.11770000       1.28920000
C        0.80400000      -0.53990000       1.23670000
C        1.23470000      -1.94710000       0.71870000
O        0.21680000      -2.87110000       0.42500000
H        0.75980000       2.06330000      -0.01100000
H       -0.73070000       1.82650000      -0.93300000
H       -0.78100000       1.83840000       0.83450000
H       -0.94530000      -0.47520000      -0.04070000
H        0.33050000      -1.16310000      -1.88240000
H        1.33590000       0.27690000      -1.80390000
H        2.55330000      -2.06750000      -1.12200000
H        3.89590000      -0.07510000      -0.01500000
H        2.46100000       0.87850000       2.00090000
H        0.21610000      -0.51780000       2.15560000
H        1.89450000      -2.44890000       1.42970000
H       -0.37120000      -2.49660000      -0.23790000
