17
Properties=species:S:1:pos:R:3 gdb_7068=T pbc="F F F"
C        0.07750000       1.76000000       0.10890000
C       -0.04130000       0.25050000      -0.05860000
C        0.56290000      -0.51140000       1.14070000
C        0.60690000      -1.95460000       0.94740000
C        0.64460000      -3.14150000       0.76190000
O       -1.43280000      -0.05490000      -0.17190000
C       -1.80940000      -1.01830000      -1.03790000
N       -3.02470000      -1.34830000      -1.11870000
H        1.12730000       2.05870000       0.17990000
H       -0.37460000       2.27090000      -0.74450000
H       -0.44080000       2.08620000       1.01560000
H        0.47500000      -0.06590000      -0.97480000
H        1.57660000      -0.13200000       1.31960000
H       -0.02970000      -0.26780000       2.03080000
H        0.67360000      -4.19300000       0.61610000
H       -0.97750000      -1.42970000      -1.62350000
H       -3.13850000      -2.06940000      -1.82780000
