19
Properties=species:S:1:pos:R:3 gdb_17381=T pbc="F F F"
C        0.04630000       1.52730000      -0.05030000
C        0.05690000       0.00470000       0.09080000
O        0.69950000      -0.40620000       1.29650000
C       -1.34370000      -0.59630000       0.00030000
C       -2.13970000      -0.59420000      -1.33640000
N       -2.38970000      -2.07950000      -1.26320000
C       -1.05290000      -2.69580000      -1.31480000
C       -1.49230000      -2.11680000      -0.03120000
H        1.06170000       1.92350000       0.03420000
H       -0.36820000       1.83590000      -1.01580000
H       -0.56700000       1.98550000       0.73620000
H        0.68200000      -0.42130000      -0.70310000
H        0.21850000      -0.01190000       2.03290000
H       -1.95970000      -0.16920000       0.80120000
H       -3.08240000      -0.04590000      -1.29730000
H       -1.59030000      -0.29130000      -2.23570000
H       -1.08870000      -3.77680000      -1.40830000
H       -0.27290000      -2.21910000      -1.90530000
H       -1.73320000      -2.73900000       0.82430000
