16
Properties=species:S:1:pos:R:3 gdb_86534=T pbc="F F F"
O        0.23240000       1.42140000      -0.25040000
C       -0.14030000       0.09900000       0.03530000
C        0.08270000      -0.39890000       1.50150000
N       -1.36520000      -0.55860000       1.61630000
C       -1.66570000      -0.01930000       0.28150000
C       -2.07180000      -1.01630000       2.66580000
O       -1.57600000      -1.40040000       3.71520000
C       -3.59050000      -1.05370000       2.50040000
O       -4.19310000      -0.70500000       1.51830000
H        1.18110000       1.44700000      -0.41090000
H        0.23630000      -0.60320000      -0.71750000
H        0.64190000      -1.33040000       1.63360000
H        0.48890000       0.37040000       2.16720000
H       -2.16590000       0.95280000       0.29880000
H       -2.21930000      -0.69980000      -0.36810000
H       -4.08370000      -1.44760000       3.41260000
