17
Properties=species:S:1:pos:R:3 gdb_102891=T pbc="F F F"
C        0.41780000       1.51550000       0.40280000
C        0.06440000       0.11150000      -0.09150000
C        0.96590000      -0.34300000      -1.24510000
O        2.29730000      -0.43340000      -0.75050000
C        3.29050000      -0.65460000      -1.72950000
C        3.45920000       0.49940000      -2.63200000
N        3.56740000       1.41030000      -3.33420000
C        0.53330000      -1.64790000      -1.79000000
N        0.21620000      -2.67260000      -2.21950000
H        1.45060000       1.55770000       0.75580000
H        0.30050000       2.25770000      -0.39400000
H       -0.23900000       1.80320000       1.22800000
H        0.15470000      -0.62100000       0.71720000
H       -0.97160000       0.07410000      -0.44420000
H        0.91800000       0.39320000      -2.06200000
H        4.22420000      -0.82600000      -1.18740000
H        3.07750000      -1.54880000      -2.33200000
