19
Properties=species:S:1:pos:R:3 gdb_86737=T pbc="F F F"
C        0.26650000       1.65480000      -0.08830000
C       -0.03350000       0.16260000       0.02800000
O        0.54950000      -0.52860000      -1.08660000
C        1.23250000      -1.68420000      -0.65360000
C        1.31480000      -1.54720000       0.85180000
C        0.57000000      -0.51590000       1.23110000
C        0.45970000      -2.97220000      -1.02820000
C        1.28130000      -4.24770000      -1.05980000
O       -0.72120000      -2.94490000      -1.26500000
H        1.34430000       1.83540000      -0.04090000
H       -0.11000000       2.03810000      -1.04070000
H       -0.22030000       2.20870000       0.72110000
H       -1.12470000       0.01170000       0.00950000
H        2.22540000      -1.72210000      -1.12920000
H        1.86880000      -2.22670000       1.48600000
H        0.39610000      -0.18040000       2.24570000
H        1.89340000      -4.34790000      -0.15670000
H        0.62380000      -5.11180000      -1.16170000
H        1.97330000      -4.21720000      -1.90990000
