13
Properties=species:S:1:pos:R:3 gdb_21798=T pbc="F F F"
O       -0.40500000       0.84660000       0.95680000
C        0.10850000       1.05740000      -0.10800000
C        1.45280000       1.76740000      -0.27750000
C        1.37680000       2.83960000      -1.31350000
N        1.35860000       2.66200000      -2.62430000
C        1.22390000       3.92960000      -3.10440000
N        1.15720000       4.87730000      -2.18500000
N        1.25000000       4.15750000      -1.04120000
H       -0.35950000       0.74460000      -1.06520000
H        1.77150000       2.14880000       0.69550000
H        2.17720000       1.01630000      -0.61520000
H        1.17850000       4.15920000      -4.15830000
H        1.23040000       4.62750000      -0.15050000
