20
Properties=species:S:1:pos:R:3 gdb_115688=T pbc="F F F"
C        0.28660000       1.13340000       0.21600000
O        0.22060000      -0.10160000      -0.47660000
C       -1.04000000      -0.72940000      -0.38450000
C       -1.22450000      -1.97880000      -1.26000000
C       -2.09100000      -2.58280000      -0.12140000
C       -1.45200000      -1.56080000       0.88000000
C       -0.39500000      -2.23220000       1.75780000
N        0.90070000      -2.12330000       1.35270000
O       -0.73060000      -2.86610000       2.74140000
H        1.28120000       1.54970000       0.04140000
H       -0.46790000       1.83790000      -0.16210000
H        0.13740000       1.00500000       1.29700000
H       -1.82700000       0.01170000      -0.58840000
H       -1.67230000      -1.84380000      -2.24640000
H       -0.27790000      -2.51470000      -1.36600000
H       -3.15750000      -2.39380000      -0.26180000
H       -1.94960000      -3.63740000       0.11660000
H       -2.15340000      -1.07940000       1.56360000
H        1.15820000      -1.48020000       0.61790000
H        1.60500000      -2.53600000       1.94280000
