23
Properties=species:S:1:pos:R:3 gdb_109723=T pbc="F F F"
C        0.01080000       1.47670000       0.34530000
C       -0.00180000       0.05380000      -0.22590000
C       -1.36220000      -0.59990000      -0.10100000
C       -1.57950000      -2.08890000      -0.14890000
C       -0.45850000      -3.08590000      -0.33920000
C       -1.77430000      -1.34280000       1.17340000
C       -0.85170000      -1.50740000       2.25960000
C       -0.09000000      -1.64210000       3.18530000
C        0.82440000      -1.80470000       4.30710000
H        0.99280000       1.94430000       0.22290000
H       -0.72620000       2.11280000      -0.15800000
H       -0.22930000       1.46640000       1.41300000
H        0.28980000       0.07740000      -1.28420000
H        0.75110000      -0.54720000       0.29210000
H       -2.16390000      -0.00610000      -0.53600000
H       -2.51400000      -2.39460000      -0.61320000
H        0.42450000      -2.82710000       0.24860000
H       -0.77750000      -4.08490000      -0.02350000
H       -0.16290000      -3.14700000      -1.39250000
H       -2.80640000      -1.20510000       1.48470000
H        0.48960000      -1.23130000       5.17900000
H        0.90520000      -2.85390000       4.61380000
H        1.83230000      -1.45670000       4.05390000
