21
Properties=species:S:1:pos:R:3 gdb_103304=T pbc="F F F"
C        0.00420000       1.63570000       0.12270000
C       -0.20900000       0.12390000      -0.02740000
C        0.60370000      -0.46850000      -1.16720000
O        0.12530000       0.08200000      -2.35980000
C        2.15770000      -0.65370000      -1.09850000
C        2.00270000      -1.83870000      -0.12840000
C        0.95260000      -2.00550000      -1.25200000
C        0.07270000      -3.16000000      -1.60990000
O        2.03030000      -1.61620000      -2.22830000
H        1.04190000       1.86550000       0.38850000
H       -0.22500000       2.15000000      -0.81330000
H       -0.63840000       2.04390000       0.90830000
H        0.01800000      -0.38040000       0.91520000
H       -1.26470000      -0.07650000      -0.24590000
H        0.68990000      -0.30440000      -3.04660000
H        2.95730000       0.08400000      -1.17330000
H        2.82070000      -2.55750000      -0.18020000
H        1.66760000      -1.65780000       0.89330000
H       -0.61260000      -3.38010000      -0.78520000
H       -0.52270000      -2.92020000      -2.49640000
H        0.66660000      -4.05540000      -1.81590000
