20
Properties=species:S:1:pos:R:3 gdb_101930=T pbc="F F F"
C       -0.79430000       0.79770000       0.31690000
O       -0.07500000      -0.39250000       0.05770000
C        0.79480000      -0.30730000      -1.05360000
C        1.80880000      -1.43990000      -0.95470000
C        2.36190000      -1.84880000       0.35600000
N        1.41880000      -2.72890000      -0.36540000
C        0.05410000      -0.41650000      -2.40540000
C       -1.10610000      -1.38670000      -2.48120000
O        0.44680000       0.21840000      -3.35570000
H       -0.11550000       1.63790000       0.52020000
H       -1.44820000       1.07660000      -0.52200000
H       -1.41110000       0.61350000       1.19920000
H        1.32820000       0.65490000      -1.06680000
H        2.43690000      -1.52220000      -1.83890000
H        3.38150000      -2.21750000       0.41870000
H        1.99640000      -1.33080000       1.23680000
H        0.50280000      -2.61470000       0.06500000
H       -0.75300000      -2.39680000      -2.24310000
H       -1.87200000      -1.14040000      -1.74030000
H       -1.53130000      -1.37040000      -3.48500000
