23
Properties=species:S:1:pos:R:3 gdb_89376=T pbc="F F F"
C       -0.06090000       1.51360000      -0.02800000
C       -0.01260000       0.00460000       0.01600000
C        1.29660000      -0.71650000      -0.23840000
C        0.65140000      -0.79740000       1.13100000
C        1.33910000      -0.17790000       2.32450000
C       -0.20550000      -2.03080000       1.38440000
C       -1.10490000      -2.18550000       0.14640000
O       -2.32320000      -2.80630000       0.53160000
C       -1.27110000      -0.74740000      -0.39810000
H        0.86380000       1.96350000       0.34540000
H       -0.20440000       1.87060000      -1.05510000
H       -0.89060000       1.90370000       0.57380000
H        1.32460000      -1.59080000      -0.88220000
H        2.18250000      -0.09320000      -0.31920000
H        1.88170000       0.73350000       2.05710000
H        0.61870000       0.07850000       3.11060000
H        2.06630000      -0.87340000       2.76060000
H        0.38040000      -2.93420000       1.58650000
H       -0.85320000      -1.86060000       2.25390000
H       -0.59760000      -2.80880000      -0.60430000
H       -2.84350000      -2.95860000      -0.26340000
H       -2.14570000      -0.29820000       0.09030000
H       -1.45050000      -0.72550000      -1.48060000
