17
Properties=species:S:1:pos:R:3 gdb_86635=T pbc="F F F"
O       -0.25030000       1.42710000       0.09050000
C       -0.02980000       0.01890000       0.04530000
C        0.58870000      -0.49790000       1.36360000
C       -0.62890000      -0.78410000       2.21760000
C       -0.56610000      -0.99510000       3.66550000
O        0.46030000      -0.97300000       4.30930000
C       -1.74660000      -0.82830000       1.48050000
C       -1.45550000      -0.60990000       0.00980000
O       -2.39830000       0.16110000      -0.68990000
H        0.58390000       1.87860000      -0.06280000
H        0.55850000      -0.24750000      -0.84030000
H        1.17420000      -1.41080000       1.19650000
H        1.26340000       0.23170000       1.82160000
H       -1.54960000      -1.17840000       4.15230000
H       -2.74680000      -1.02790000       1.84970000
H       -1.41090000      -1.58690000      -0.49300000
H       -2.13650000       1.08120000      -0.54750000
