18
Properties=species:S:1:pos:R:3 gdb_73630=T pbc="F F F"
C       -0.12910000       1.53340000       0.13730000
C        0.04290000       0.02950000       0.02690000
C       -1.26530000      -0.77500000      -0.05170000
O       -0.98030000      -2.04160000       0.51180000
C       -0.13890000      -1.79260000       1.62950000
C        0.83620000      -0.69230000       1.16950000
N        2.02980000      -1.24910000       0.51880000
C        1.91010000      -0.97650000      -0.71330000
O        0.85250000      -0.25930000      -1.15260000
H        0.84410000       2.03000000       0.17770000
H       -0.67840000       1.92890000      -0.72280000
H       -0.68480000       1.78740000       1.04520000
H       -2.05380000      -0.25600000       0.51930000
H       -1.60490000      -0.91710000      -1.07990000
H       -0.73070000      -1.44400000       2.49180000
H        0.37140000      -2.72040000       1.89270000
H        1.12920000      -0.03400000       1.99190000
H        2.61090000      -1.26220000      -1.49030000
