18
Properties=species:S:1:pos:R:3 gdb_22846=T pbc="F F F"
O       -0.00540000       1.30870000       0.77880000
N        0.06120000      -0.06430000       0.53120000
C       -0.98970000      -0.52730000      -0.05140000
C       -0.94640000      -2.02820000      -0.25270000
O       -1.29130000      -2.46510000      -1.55070000
C       -2.68160000      -2.49460000      -1.80180000
C       -3.25730000      -1.15150000      -2.24940000
C       -3.10920000       0.01610000      -1.31160000
C       -2.15140000       0.28460000      -0.41290000
H        0.82800000       1.47180000       1.23270000
H        0.07360000      -2.36550000      -0.05700000
H       -1.61310000      -2.50380000       0.48670000
H       -2.83340000      -3.22890000      -2.60030000
H       -3.21920000      -2.85360000      -0.90940000
H       -2.79760000      -0.87550000      -3.21040000
H       -4.32310000      -1.30000000      -2.46690000
H       -3.86760000       0.78610000      -1.44360000
H       -2.19540000       1.24030000       0.09800000
