20
Properties=species:S:1:pos:R:3 gdb_115869=T pbc="F F F"
C        0.06210000       1.53040000       0.13010000
C        0.07760000       0.03040000       0.00580000
N       -0.83130000      -0.81540000       0.81700000
C        0.63120000      -0.89640000       1.02100000
C        1.24930000      -2.05950000       0.27860000
O        0.75680000      -1.96360000      -1.05440000
C        0.35980000      -0.61720000      -1.34430000
C       -0.82170000      -0.70740000      -2.30370000
O       -0.48630000      -1.44270000      -3.46530000
H        0.97370000       1.96980000      -0.28890000
H       -0.79060000       1.96530000      -0.40360000
H       -0.00850000       1.83710000       1.17870000
H       -1.23620000      -0.24350000       1.55580000
H        1.07150000      -0.54320000       1.94790000
H        2.34800000      -1.98130000       0.30630000
H        0.95640000      -3.03870000       0.67110000
H        1.18990000      -0.08050000      -1.83350000
H       -1.66970000      -1.15280000      -1.76520000
H       -1.11050000       0.29590000      -2.63700000
H       -0.12430000      -2.27850000      -3.14830000
