21
Properties=species:S:1:pos:R:3 gdb_106522=T pbc="F F F"
C       -0.18740000       1.29970000      -0.12970000
O        0.25130000      -0.04270000      -0.09570000
C        0.71320000      -0.48860000       1.14970000
C       -0.26880000      -0.59460000       2.35790000
C        0.58950000      -1.82390000       2.76380000
C        0.90200000      -2.02160000       1.25440000
O        1.72280000      -1.40410000       3.51230000
C        2.66000000      -0.65890000       2.74020000
C        1.99460000       0.21250000       1.65020000
H        0.63370000       2.01430000       0.02300000
H       -0.61400000       1.46860000      -1.12120000
H       -0.96230000       1.49500000       0.62590000
H       -0.31740000       0.22740000       3.07560000
H       -1.27100000      -0.88610000       2.03180000
H        0.12330000      -2.63500000       3.32360000
H        0.08110000      -2.53840000       0.75310000
H        1.85370000      -2.46730000       0.95830000
H        3.22860000      -0.04970000       3.44850000
H        3.37020000      -1.34900000       2.26340000
H        2.69290000       0.34550000       0.81650000
H        1.74790000       1.20530000       2.04160000
