20
Properties=species:S:1:pos:R:3 gdb_33240=T pbc="F F F"
C        0.58810000       1.31150000      -0.44270000
C       -0.03300000       0.02510000       0.07540000
O        0.80560000      -0.50690000       1.07730000
C        0.32010000      -1.71130000       1.63130000
C        1.27340000      -2.19560000       2.67850000
C        2.44460000      -1.57950000       3.05290000
N        3.02360000      -2.33950000       4.03930000
C        2.24100000      -3.43370000       4.30290000
C        1.14600000      -3.37310000       3.47380000
H        1.57940000       1.11630000      -0.86170000
H       -0.03910000       1.75170000      -1.22370000
H        0.69560000       2.03820000       0.36770000
H       -1.04000000       0.21900000       0.48380000
H       -0.15650000      -0.70270000      -0.74530000
H       -0.68480000      -1.55180000       2.06330000
H        0.19490000      -2.47020000       0.83750000
H        2.89840000      -0.67170000       2.69440000
H        3.89060000      -2.12390000       4.49780000
H        2.52570000      -4.15640000       5.05060000
H        0.34060000      -4.09160000       3.43830000
