20
Properties=species:S:1:pos:R:3 gdb_33186=T pbc="F F F"
C       -0.17660000       1.57660000      -0.02970000
C       -0.01750000       0.05400000      -0.01820000
C        0.72250000      -0.47910000      -1.24880000
C        0.87920000      -2.01200000      -1.23490000
C        1.58780000      -2.55220000      -2.42480000
C        2.76030000      -3.19950000      -2.63830000
N        2.91760000      -3.45780000      -3.99690000
C        1.85220000      -2.96200000      -4.53040000
O        0.99090000      -2.39370000      -3.65370000
H        0.79790000       2.07640000      -0.05700000
H       -0.74210000       1.90860000      -0.90730000
H       -0.70660000       1.92880000       0.86060000
H        0.52010000      -0.25240000       0.88910000
H       -1.00690000      -0.41850000       0.04210000
H        0.18740000      -0.18370000      -2.15940000
H        1.71670000      -0.01880000      -1.31280000
H        1.43780000      -2.32200000      -0.34480000
H       -0.11390000      -2.47480000      -1.15710000
H        3.50130000      -3.50090000      -1.91490000
H        1.56610000      -2.94510000      -5.57040000
