16
Properties=species:S:1:pos:R:3 gdb_46879=T pbc="F F F"
N       -0.02800000       1.10280000      -0.98870000
C       -0.00980000       0.16590000      -0.12790000
O        1.12480000      -0.09510000       0.58390000
C        1.34140000      -1.36900000       1.17300000
C        0.55290000      -1.58570000       2.45570000
O       -0.13100000      -0.46590000       2.98130000
C       -0.92230000      -1.53440000       2.42210000
C       -1.65190000      -1.29810000       1.15820000
C       -1.24910000      -0.60320000       0.08620000
H        0.88750000       1.55520000      -1.02770000
H        1.11720000      -2.17310000       0.45900000
H        2.41280000      -1.39780000       1.38790000
H        1.03690000      -2.23030000       3.19160000
H       -1.46980000      -2.10060000       3.17320000
H       -2.63720000      -1.75450000       1.11350000
H       -1.93590000      -0.48670000      -0.74470000
