17
Properties=species:S:1:pos:R:3 gdb_12712=T pbc="F F F"
C       -0.15570000       1.49340000       0.03870000
C       -0.00460000      -0.00880000      -0.03010000
C       -1.24510000      -0.90880000       0.21520000
C       -0.38090000      -1.68210000       1.24330000
N        0.78050000      -0.74850000       1.05850000
C        1.76370000      -1.26390000       0.05770000
C        0.98650000      -0.56380000      -1.07300000
O        1.10750000      -0.45580000      -2.25690000
H        0.81910000       1.99030000       0.06200000
H       -0.69980000       1.85260000      -0.84160000
H       -0.71110000       1.78570000       0.93520000
H       -2.08310000      -0.36110000       0.65260000
H       -1.60990000      -1.47030000      -0.64730000
H       -0.75550000      -1.66750000       2.27010000
H       -0.15530000      -2.72040000       0.97600000
H        2.76920000      -0.85500000       0.20930000
H        1.84180000      -2.35470000      -0.01520000
