23
Properties=species:S:1:pos:R:3 gdb_89069=T pbc="F F F"
O       -0.07290000       1.45840000       0.09450000
C       -0.03090000       0.06070000       0.03200000
C       -0.61350000      -0.75460000       1.16080000
C       -1.33610000      -0.65170000      -0.17180000
C       -2.63860000       0.11340000      -0.28060000
C       -3.85750000      -0.71400000       0.15370000
C       -5.16160000       0.04630000       0.03610000
C       -5.90250000       0.09560000      -1.27730000
C       -6.47060000      -0.68450000      -0.11580000
H        0.55640000       1.74270000       0.76510000
H        0.84370000      -0.34100000      -0.48040000
H       -0.13540000      -1.68670000       1.44230000
H       -1.04000000      -0.19380000       1.98700000
H       -1.28220000      -1.53630000      -0.80270000
H       -2.57140000       1.02500000       0.32250000
H       -2.78020000       0.44730000      -1.31660000
H       -3.91750000      -1.62630000      -0.45620000
H       -3.71580000      -1.05110000       1.18940000
H       -5.19880000       0.95840000       0.62800000
H       -6.39120000       1.01920000      -1.56740000
H       -5.49130000      -0.46700000      -2.10970000
H       -6.44120000      -1.76810000      -0.17160000
H       -7.34640000      -0.29220000       0.38970000
