20
Properties=species:S:1:pos:R:3 gdb_56285=T pbc="F F F"
C        0.00580000       1.54000000      -0.03010000
C        0.00160000       0.02620000       0.08720000
O       -0.02060000      -0.53400000       1.15900000
C        0.02720000      -0.75200000      -1.22470000
C        0.02140000      -2.26820000      -1.03490000
C        0.04750000      -3.02860000      -2.36290000
C        0.04120000      -4.55560000      -2.14930000
C        0.06580000      -5.30000000      -3.40640000
N        0.08560000      -5.87000000      -4.41150000
H        0.89670000       1.87910000      -0.57050000
H       -0.86200000       1.88120000      -0.60570000
H       -0.01360000       1.98880000       0.96350000
H       -0.83160000      -0.42710000      -1.82950000
H        0.91050000      -0.42930000      -1.79420000
H        0.88170000      -2.55510000      -0.41940000
H       -0.86400000      -2.55290000      -0.45500000
H       -0.81750000      -2.75190000      -2.97680000
H        0.93750000      -2.75420000      -2.94100000
H        0.90730000      -4.85790000      -1.54880000
H       -0.84950000      -4.85570000      -1.58470000
