20
Properties=species:S:1:pos:R:3 gdb_85917=T pbc="F F F"
C       -0.64950000       1.63980000       0.09930000
C        0.00430000       0.26750000      -0.00890000
C       -1.03140000      -0.85630000       0.07170000
C        0.93880000       0.12780000      -1.23210000
C        2.08330000      -0.74320000      -0.71300000
N        3.35390000      -0.55470000      -1.39540000
C        2.08620000      -0.41390000       0.78880000
O        2.98560000      -0.58420000       1.56340000
O        0.89930000       0.13260000       1.14150000
H        0.11020000       2.42540000       0.13370000
H       -1.29530000       1.81930000      -0.76610000
H       -1.25900000       1.71010000       1.00460000
H       -1.76700000      -0.75500000      -0.73220000
H       -0.56190000      -1.84040000      -0.01810000
H       -1.55700000      -0.81720000       1.02950000
H        0.42740000      -0.29350000      -2.09930000
H        1.33060000       1.11070000      -1.51840000
H        1.81640000      -1.80520000      -0.79720000
H        3.63980000       0.41800000      -1.30560000
H        4.06420000      -1.08770000      -0.89840000
