18
Properties=species:S:1:pos:R:3 gdb_84938=T pbc="F F F"
C        0.30420000       1.50120000      -0.04850000
N        0.00610000       0.07060000       0.03030000
C       -0.26680000      -0.56220000      -1.19190000
C       -0.28310000      -1.85320000      -1.53590000
C        0.05280000      -3.05790000      -0.71280000
O        0.52880000      -2.77040000       0.58160000
C       -0.36180000      -1.99930000       1.36070000
C       -0.07550000      -0.49970000       1.28990000
O        0.06910000       0.15160000       2.30740000
H        1.21500000       1.67080000      -0.63130000
H       -0.52390000       2.03930000      -0.52340000
H        0.44190000       1.87170000       0.96480000
H       -0.51460000       0.16490000      -1.96000000
H       -0.57770000      -2.06710000      -2.55970000
H       -0.82450000      -3.73000000      -0.66250000
H        0.85240000      -3.62970000      -1.20080000
H       -1.40980000      -2.19190000       1.08310000
H       -0.22280000      -2.27750000       2.40700000
