16
Properties=species:S:1:pos:R:3 gdb_52833=T pbc="F F F"
C       -0.01850000       1.51330000      -0.01670000
C        0.03490000       0.05970000       0.00530000
C        0.08190000      -1.14400000       0.02640000
C        0.10950000      -2.59550000       0.00270000
O        1.03260000      -3.12960000      -0.92400000
C        0.23600000      -3.32200000       1.38080000
N       -1.12410000      -3.82930000       1.17150000
C       -1.30780000      -3.29120000      -0.07270000
O       -2.17730000      -3.36560000      -0.89570000
H        0.86670000       1.93310000      -0.50650000
H       -0.90160000       1.87000000      -0.55770000
H       -0.06120000       1.92200000       0.99870000
H        0.76980000      -2.81770000      -1.79810000
H        1.01460000      -4.08920000       1.36760000
H        0.34640000      -2.66690000       2.24770000
H       -1.66730000      -4.50920000       1.68240000
