15
Properties=species:S:1:pos:R:3 gdb_35180=T pbc="F F F"
N       -0.12720000      -1.17810000       0.12500000
C       -0.07700000      -0.02390000       0.08650000
C       -0.01650000       1.41740000       0.00200000
O        0.60360000       2.09900000       1.12300000
C        1.27260000       2.11650000      -0.10740000
C        2.74140000       1.76860000      -0.38170000
C        2.52200000       2.31940000      -1.81600000
C        1.84780000       3.33090000      -0.85100000
N        3.10320000       3.20190000       0.00830000
H       -0.92280000       1.89020000      -0.37020000
H        3.32240000       0.90830000      -0.05480000
H        3.42790000       2.69570000      -2.28940000
H        1.88020000       1.74810000      -2.48780000
H        1.38750000       4.29310000      -1.07110000
H        2.86240000       3.35910000       0.99180000
