17
Properties=species:S:1:pos:R:3 gdb_7970=T pbc="F F F"
C       -0.06130000       1.39130000       0.02020000
N       -0.01680000      -0.04790000       0.02140000
C       -1.17980000      -0.89920000       0.00290000
C       -0.59400000      -2.29480000       0.01290000
C       -1.45910000      -3.51100000      -0.00090000
C        0.73950000      -2.20410000       0.03430000
C        1.15970000      -0.77540000       0.04060000
O        2.28240000      -0.30930000       0.05850000
H        0.97170000       1.74500000       0.03750000
H       -0.55770000       1.78170000      -0.87780000
H       -0.58760000       1.78210000       0.90080000
H       -1.83000000      -0.73000000       0.87610000
H       -1.80140000      -0.73060000      -0.89090000
H       -2.09850000      -3.53240000      -0.89210000
H       -0.86040000      -4.42470000       0.01110000
H       -2.13020000      -3.52990000       0.86670000
H        1.45820000      -3.01160000       0.04620000
