19
Properties=species:S:1:pos:R:3 gdb_94749=T pbc="F F F"
C       -0.01770000       1.56830000      -0.02200000
C        0.04040000       0.04120000       0.04340000
C        0.80440000      -0.59810000      -1.15110000
N        1.38550000      -1.87750000      -0.69620000
C        1.52890000      -1.75200000       0.75150000
C        2.26980000      -0.53020000       1.25220000
C        0.76080000      -0.53070000       1.25730000
C        1.59380000      -2.97950000       1.49120000
N        1.62830000      -3.97040000       2.08750000
H        0.98880000       1.99990000      -0.00360000
H       -0.50980000       1.90360000      -0.94120000
H       -0.57520000       1.98320000       0.82330000
H       -0.98460000      -0.35270000       0.06080000
H        0.16660000      -0.76600000      -2.02180000
H        1.61060000       0.07120000      -1.47460000
H        0.72800000      -2.63040000      -0.87680000
H        2.76730000      -0.62390000       2.21000000
H        2.81420000       0.05530000       0.51940000
H        0.24820000      -0.55640000       2.21170000
