19
Properties=species:S:1:pos:R:3 gdb_95487=T pbc="F F F"
C       -0.20200000       1.47200000       0.03360000
C        0.04570000      -0.03820000       0.00080000
C        0.71950000      -0.43610000      -1.32700000
N        0.62000000      -1.85450000      -1.60030000
C        0.94670000      -2.83840000      -0.71530000
C        1.22630000      -2.77370000       0.60590000
C        1.30160000      -1.64330000       1.53970000
O        1.74840000      -1.78940000       2.67100000
N        0.87210000      -0.39040000       1.14050000
H        0.73860000       2.02240000      -0.07690000
H       -0.87640000       1.77300000      -0.77250000
H       -0.66040000       1.76790000       0.98220000
H       -0.92420000      -0.55660000       0.04220000
H        0.22480000       0.08530000      -2.15220000
H        1.76630000      -0.09880000      -1.29100000
H        0.58000000      -2.12180000      -2.56810000
H        0.95600000      -3.82220000      -1.17820000
H        1.47030000      -3.70990000       1.09170000
H        0.91690000       0.27450000       1.89880000
