20
Properties=species:S:1:pos:R:3 gdb_103908=T pbc="F F F"
C        0.12830000       1.19030000      -0.32910000
O       -0.11030000      -0.03660000       0.33830000
C       -1.40180000      -0.56460000       0.17190000
C       -2.49090000       0.14400000       0.94410000
C       -1.69420000      -1.22350000      -1.16170000
C       -1.39830000      -2.06350000       0.07010000
N       -0.14130000      -2.72880000       0.19990000
C       -0.03220000      -4.07790000       0.30470000
O       -0.95580000      -4.86160000       0.23080000
H        1.18370000       1.42980000      -0.18120000
H       -0.07660000       1.11050000      -1.40530000
H       -0.47800000       2.00700000       0.08380000
H       -2.66060000       1.15790000       0.56600000
H       -3.43540000      -0.40020000       0.85990000
H       -2.22500000       0.21110000       2.00380000
H       -2.70790000      -1.20770000      -1.54780000
H       -0.91360000      -1.18330000      -1.91340000
H       -2.21380000      -2.62170000       0.51460000
H        0.66670000      -2.14110000       0.34140000
H        1.01830000      -4.39040000       0.47040000
