12
Properties=species:S:1:pos:R:3 gdb_42242=T pbc="F F F"
O        1.48690000       2.39510000      -1.19540000
C        0.47890000       1.97810000      -0.68930000
C        0.52070000       1.15030000       0.53280000
N        0.56880000       0.47390000       1.46910000
C       -0.90190000       2.21860000      -1.26400000
C       -1.66360000       0.97080000      -1.77460000
C       -2.65950000       1.34200000      -0.67370000
O       -3.69800000       0.96560000      -0.25520000
O       -1.90800000       2.42090000      -0.23250000
H       -0.85310000       3.06260000      -1.95350000
H       -2.04750000       1.03060000      -2.79310000
H       -1.17380000       0.00770000      -1.61730000
