19
Properties=species:S:1:pos:R:3 gdb_40363=T pbc="F F F"
C        0.84100000       0.92360000      -0.18600000
O       -0.18270000       0.20840000      -0.88250000
C       -0.44610000       0.63440000       0.45620000
C       -0.60860000      -0.45920000       1.45830000
C       -1.81760000      -1.43510000       1.48200000
C       -0.88270000      -2.16830000       2.49250000
C        0.29990000      -1.70960000       1.58110000
C       -0.79910000      -1.10660000       3.59580000
O       -0.60560000       0.08360000       2.79450000
H        1.71820000       0.33820000       0.08310000
H        1.04290000       1.92820000      -0.55380000
H       -1.17370000       1.44210000       0.54380000
H       -2.76920000      -1.03900000       1.84520000
H       -1.94450000      -1.97730000       0.54450000
H       -1.03010000      -3.20490000       2.79110000
H        0.37210000      -2.27830000       0.65380000
H        1.28140000      -1.56770000       2.04070000
H       -1.71700000      -1.01590000       4.18810000
H        0.05200000      -1.24310000       4.27320000
