20
Properties=species:S:1:pos:R:3 gdb_95259=T pbc="F F F"
C       -0.10600000       1.53830000      -0.06620000
C        0.03960000       0.02320000      -0.00850000
O        0.57600000      -0.39890000      -1.25480000
C        0.97960000      -1.75760000      -1.24530000
C        2.01990000      -1.99480000      -0.16760000
C        3.06040000      -0.85640000       0.00490000
C        2.33720000      -0.51900000       1.30380000
C        0.86330000      -0.43330000       1.18480000
N        1.47300000      -1.77750000       1.23690000
H        0.87480000       2.01370000      -0.15740000
H       -0.71180000       1.82360000      -0.93030000
H       -0.59300000       1.91390000       0.83880000
H       -0.96050000      -0.43270000       0.11370000
H        0.11560000      -2.42450000      -1.08490000
H        1.39130000      -1.96060000      -2.23920000
H        2.44220000      -2.99870000      -0.24260000
H        4.06250000      -1.24670000       0.19360000
H        3.10740000      -0.08610000      -0.76710000
H        2.83460000      -0.23800000       2.22780000
H        0.36090000      -0.21090000       2.12570000
