17
Properties=species:S:1:pos:R:3 gdb_113523=T pbc="F F F"
O        0.15600000       0.46710000       0.90570000
C       -0.19270000       0.16680000      -0.43860000
C       -1.52380000      -0.53860000      -0.42880000
C       -1.80200000      -1.63750000      -1.41590000
C       -1.56670000      -1.97240000       0.03050000
C       -0.51680000      -2.81480000       0.74130000
O       -1.56730000      -3.32220000       1.63320000
C       -2.53810000      -2.57350000       1.00210000
O       -3.70080000      -2.51980000       1.24770000
H        0.93510000       1.03170000       0.89840000
H       -0.26510000       1.08090000      -1.04720000
H        0.56420000      -0.48080000      -0.91120000
H       -2.36670000       0.07080000      -0.11630000
H       -2.81320000      -1.75360000      -1.78980000
H       -1.02020000      -1.90410000      -2.12050000
H       -0.06960000      -3.63310000       0.17210000
H        0.23540000      -2.25870000       1.30330000
