19
Properties=species:S:1:pos:R:3 gdb_119793=T pbc="F F F"
C       -0.16720000       1.49310000      -0.14180000
C        0.18310000       0.02200000       0.05330000
N        0.69570000      -0.55340000      -1.18340000
C        0.81570000      -1.90110000      -1.30910000
N        0.31110000      -2.80520000      -0.55150000
C        0.62250000      -4.06130000      -1.18800000
C        0.04980000      -4.28820000      -2.57650000
C        1.43070000      -3.71380000      -2.42080000
O        1.53150000      -2.29700000      -2.40980000
H        0.71470000       2.07820000      -0.42770000
H       -0.92370000       1.61600000      -0.92220000
H       -0.55560000       1.91680000       0.78850000
H        0.90530000      -0.09380000       0.87520000
H       -0.70000000      -0.55810000       0.33280000
H        1.39620000      -0.02390000      -1.68110000
H        0.82340000      -4.90440000      -0.53760000
H        0.00060000      -5.31210000      -2.93260000
H       -0.75230000      -3.63930000      -2.91290000
H        2.32560000      -4.19530000      -2.79250000
