13
Properties=species:S:1:pos:R:3 gdb_133678=T pbc="F F F"
O       -0.09880000       1.42020000       0.00490000
C        0.00020000       0.02270000      -0.01460000
C        0.67460000      -0.52270000      -1.29400000
C       -0.01900000      -0.08710000      -2.50140000
N       -0.56910000       0.24720000      -3.46010000
C        0.76030000      -0.46760000       1.22350000
F        0.13060000      -0.13690000       2.34700000
F        0.91920000      -1.79840000       1.20750000
F        1.98720000       0.09220000       1.25740000
H        0.79160000       1.79080000       0.04330000
H       -1.02130000      -0.36180000       0.05550000
H        1.71500000      -0.17930000      -1.33190000
H        0.69910000      -1.61620000      -1.26450000
