21
Properties=species:S:1:pos:R:3 gdb_67877=T pbc="F F F"
C       -0.01450000       1.55800000      -0.12370000
C       -0.00950000       0.03720000       0.00580000
C        0.23030000      -0.59440000      -1.34440000
C        0.27840000      -1.91490000      -1.49030000
C        0.08760000      -2.77100000      -0.27380000
C       -0.13700000      -1.91190000       0.96280000
C        0.75140000      -0.64460000       1.21020000
C       -0.37140000      -0.15660000       2.16350000
C       -1.10040000      -0.67740000       0.89660000
H        0.94250000       1.90440000      -0.53150000
H       -0.79550000       1.87360000      -0.82560000
H       -0.18280000       2.08620000       0.81540000
H        0.36220000       0.07170000      -2.19320000
H        0.44990000      -2.38590000      -2.45390000
H       -0.76310000      -3.45450000      -0.41300000
H        0.95970000      -3.42400000      -0.12130000
H       -0.27710000      -2.53050000       1.85500000
H        1.83030000      -0.62500000       1.38330000
H       -0.51440000      -0.75110000       3.07020000
H       -0.42870000       0.90720000       2.39070000
H       -2.17620000      -0.69600000       0.70500000
