14
Properties=species:S:1:pos:R:3 gdb_3006=T pbc="F F F"
O        0.10300000       1.42030000      -0.20630000
C        0.05360000       0.03440000      -0.35020000
C       -1.23210000      -0.54110000       0.21600000
O       -2.08000000       0.20870000       0.66700000
C       -1.41660000      -2.01650000       0.19300000
C       -1.93210000      -2.64250000       1.45680000
N       -2.79140000      -2.53470000       0.28970000
H       -0.74890000       1.66500000       0.18900000
H        0.11630000      -0.26830000      -1.41040000
H        0.90410000      -0.45300000       0.15560000
H       -0.74330000      -2.58470000      -0.44220000
H       -1.60250000      -3.64660000       1.70660000
H       -2.10410000      -1.97580000       2.29690000
H       -3.40550000      -1.72820000       0.40880000
