17
Properties=species:S:1:pos:R:3 gdb_112378=T pbc="F F F"
C       -0.12420000       1.54700000       0.00390000
N        0.00080000       0.09710000      -0.15060000
C       -1.23870000      -0.63520000       0.03360000
C       -1.15350000      -2.09990000      -0.40590000
C       -1.98560000      -2.83210000       0.61720000
N       -2.47360000      -3.98370000       0.51280000
O       -2.12780000      -2.02590000       1.74040000
C       -1.62660000      -0.75700000       1.51380000
O       -1.57170000       0.05520000       2.38320000
H        0.84340000       2.00990000      -0.20650000
H       -0.87870000       1.99790000      -0.66470000
H       -0.40110000       1.77800000       1.03360000
H        0.35740000      -0.11230000      -1.07670000
H       -2.10690000      -0.14900000      -0.45600000
H       -1.50670000      -2.30150000      -1.41700000
H       -0.11400000      -2.43940000      -0.32580000
H       -2.98330000      -4.24680000       1.35770000
