23
Properties=species:S:1:pos:R:3 gdb_9687=T pbc="F F F"
C       -0.26280000       1.58410000      -0.34650000
C        0.01370000       0.17220000       0.16730000
N       -1.22390000      -0.59900000       0.19390000
C       -1.55460000      -1.40650000      -0.97800000
C       -1.21570000      -2.06210000       0.32280000
C        0.09130000      -2.82530000       0.44450000
C       -2.35180000      -2.58860000       1.19150000
C       -2.84850000      -3.98720000       0.80640000
H        0.65130000       2.18610000      -0.33840000
H       -0.64110000       1.55610000      -1.37380000
H       -1.01450000       2.07840000       0.27510000
H        0.80000000      -0.28980000      -0.45280000
H        0.40270000       0.21920000       1.19190000
H       -2.58380000      -1.35150000      -1.32680000
H       -0.81330000      -1.46870000      -1.77550000
H        0.86920000      -2.43350000      -0.21360000
H        0.46770000      -2.79250000       1.47400000
H       -0.05390000      -3.87820000       0.18350000
H       -2.02470000      -2.58900000       2.24040000
H       -3.17520000      -1.87020000       1.12810000
H       -3.70850000      -4.27450000       1.41910000
H       -3.16030000      -4.02010000      -0.24330000
H       -2.07800000      -4.75170000       0.94790000
