14
Properties=species:S:1:pos:R:3 gdb_31388=T pbc="F F F"
O        0.50360000       0.65670000      -0.84190000
C       -0.13390000       0.29750000       0.35810000
C       -1.44940000      -0.40480000       0.14160000
C       -1.96560000      -0.81440000      -1.02560000
C       -3.27340000      -1.47410000      -1.07030000
O       -3.80740000      -1.85420000      -2.08630000
N       -3.90690000      -1.65090000       0.19860000
C       -3.32040000      -1.22980000       1.23890000
O       -2.11650000      -0.59820000       1.31710000
H       -0.00950000       1.35650000      -1.26020000
H        0.54780000      -0.37960000       0.88680000
H       -0.30390000       1.15490000       1.02800000
H       -1.41380000      -0.66830000      -1.94410000
H       -3.74610000      -1.33480000       2.23340000
