17
Properties=species:S:1:pos:R:3 gdb_50634=T pbc="F F F"
N       -0.05230000       1.29620000      -0.29730000
C        0.01460000       0.07950000       0.03250000
C       -1.25030000      -0.75820000       0.08540000
N       -1.12590000      -1.92070000       0.94890000
C        0.11240000      -2.65690000       0.82650000
C        1.27120000      -1.70250000       1.07740000
O        1.21270000      -0.55470000       0.22140000
C       -2.13110000      -2.27140000       1.80260000
O       -3.18010000      -1.67950000       1.92790000
H        0.88450000       1.70210000      -0.34710000
H       -2.08130000      -0.14910000       0.43730000
H       -1.47970000      -1.07540000      -0.94320000
H        0.12930000      -3.46980000       1.55850000
H        0.20060000      -3.09780000      -0.17710000
H        1.26070000      -1.37070000       2.12390000
H        2.23250000      -2.17800000       0.86780000
H       -1.87170000      -3.17870000       2.38400000
