15
Properties=species:S:1:pos:R:3 gdb_56108=T pbc="F F F"
N        0.22530000       0.68630000      -0.77570000
C       -0.47150000      -0.49110000      -0.40360000
N        0.39140000      -1.39690000       0.26360000
H       -0.08560000      -2.26680000       0.47060000
H        1.21530000      -1.61350000      -0.28840000
C       -1.78120000      -0.20500000       0.37910000
N       -2.90200000      -0.69260000      -0.41990000
C       -2.38050000      -1.17970000      -1.47800000
O       -1.05620000      -1.16870000      -1.66830000
C       -3.15990000      -1.76940000      -2.53690000
N       -3.76970000      -2.24520000      -3.39490000
H        1.04800000       0.48070000      -1.33360000
H       -0.37070000       1.30660000      -1.31170000
H       -1.75960000      -0.70340000       1.35330000
H       -1.88460000       0.86780000       0.56970000
