14
Properties=species:S:1:pos:R:3 gdb_2853=T pbc="F F F"
O        0.00510000       1.41090000      -0.03920000
C        0.05040000       0.04120000       0.31870000
C       -1.31590000      -0.59060000       0.17550000
N       -1.72150000      -0.93650000      -1.18360000
C       -1.55800000      -2.02690000      -0.19820000
C       -0.45130000      -2.99050000      -0.46470000
O       -0.40260000      -4.09350000       0.01840000
H       -0.26290000       1.44600000      -0.96460000
H        0.78960000      -0.50670000      -0.28120000
H        0.37260000       0.00530000       1.36420000
H       -2.07070000      -0.15400000       0.82830000
H       -2.70920000      -0.75390000      -1.33640000
H       -2.44150000      -2.49060000       0.23400000
H        0.32800000      -2.61620000      -1.16270000
