16
Properties=species:S:1:pos:R:3 gdb_56786=T pbc="F F F"
O       -0.31050000       1.31490000       0.09480000
C        0.05280000      -0.04670000      -0.03240000
C        0.75620000      -0.29780000      -1.31040000
N        1.33550000      -0.47150000      -2.29490000
C        0.88420000      -0.54670000       1.11910000
C        2.32670000      -0.16820000       1.50990000
C        2.46970000      -1.59680000       2.14590000
C        1.02450000      -1.88610000       1.71940000
O        0.19400000      -0.88180000       2.32130000
H        0.49360000       1.84740000       0.08590000
H       -0.88890000      -0.60500000      -0.03670000
H        2.98580000      -0.02800000       0.65030000
H        2.40870000       0.68390000       2.18780000
H        3.20410000      -2.21340000       1.62400000
H        2.64730000      -1.64210000       3.22220000
H        0.55260000      -2.82900000       1.46780000
