21
Properties=species:S:1:pos:R:3 gdb_39683=T pbc="F F F"
C        0.08010000       1.07770000      -0.50380000
C        1.49210000       1.42430000       0.00370000
C        1.39370000       0.08080000       0.76160000
O        0.06760000      -0.16550000       0.23310000
C        2.37110000      -1.01800000       0.36970000
C        1.90580000      -2.42100000       0.83010000
C        2.15410000      -3.29990000      -0.40640000
C        1.94740000      -2.29180000      -1.53730000
O        2.51380000      -1.07700000      -1.05370000
H       -0.72270000       1.74890000      -0.17480000
H       -0.01050000       0.91020000      -1.58290000
H        2.26350000       1.44620000      -0.76520000
H        1.56230000       2.31260000       0.63270000
H        1.37220000       0.16910000       1.85800000
H        3.35630000      -0.76210000       0.78700000
H        2.44210000      -2.76200000       1.71820000
H        0.83780000      -2.39420000       1.06430000
H        3.18360000      -3.67270000      -0.41980000
H        1.47860000      -4.15690000      -0.46760000
H        2.46120000      -2.55430000      -2.46690000
H        0.87670000      -2.15910000      -1.74970000
