15
Properties=species:S:1:pos:R:3 gdb_66713=T pbc="F F F"
C       -0.09070000       1.50170000       0.01640000
C        0.02430000       0.01650000      -0.00620000
C        0.89890000      -0.98570000      -0.81220000
C       -0.18250000      -2.00150000      -0.80780000
N        0.83350000      -2.00140000       0.29890000
C       -0.04910000      -1.02600000       1.06730000
C       -1.11820000      -1.04770000      -0.02190000
C       -2.51340000      -0.84840000       0.03940000
N       -3.65930000      -0.67810000       0.08630000
H        0.85160000       1.96150000       0.33400000
H       -0.34710000       1.89620000      -0.97230000
H       -0.87260000       1.81560000       0.71500000
H        1.77220000      -0.86410000      -1.44090000
H       -0.37920000      -2.86470000      -1.43050000
H       -0.15060000      -0.98180000       2.14440000
