15
Properties=species:S:1:pos:R:3 gdb_53030=T pbc="F F F"
C        0.02590000       1.42710000       0.05890000
C        0.04830000      -0.02560000       0.03250000
C        0.07130000      -1.23030000       0.01510000
C        0.07560000      -2.65120000      -0.02950000
O        0.93930000      -3.43760000       0.85780000
C        0.25930000      -4.47120000       0.10220000
C       -1.09790000      -3.70990000       0.01510000
O       -1.20600000      -3.82590000      -1.42680000
C        0.22270000      -3.66670000      -1.23230000
H        0.72320000       1.81260000       0.81060000
H        0.31470000       1.84590000      -0.91110000
H       -0.97280000       1.80390000       0.30470000
H        0.48580000      -5.51580000       0.30580000
H       -1.99870000      -3.74680000       0.62650000
H        0.88480000      -3.65260000      -2.09720000
