21
Properties=species:S:1:pos:R:3 gdb_37406=T pbc="F F F"
C       -0.00850000       1.54060000       0.13150000
C        1.31080000       0.82300000       0.04820000
C        0.01460000       0.02940000       0.03530000
C        0.00500000      -0.67620000      -1.34230000
C       -0.19060000       0.35320000      -2.48930000
C        1.30060000       0.71360000      -2.69760000
C        1.83360000      -0.69820000      -3.08140000
C        1.52490000      -1.00290000      -1.59850000
C        1.96580000       0.45670000      -1.27810000
H       -0.26710000       1.94750000       1.10490000
H       -0.34700000       2.15830000      -0.68980000
H        1.96000000       0.84200000       0.91810000
H       -0.31340000      -0.53720000       0.90030000
H       -0.67920000      -1.52530000      -1.37850000
H       -0.59690000      -0.11360000      -3.39210000
H       -0.85130000       1.17940000      -2.23220000
H        1.53460000       1.59810000      -3.29130000
H        1.30190000      -1.24120000      -3.86830000
H        2.90860000      -0.71590000      -3.27920000
H        1.94210000      -1.85970000      -1.06640000
H        3.04250000       0.63190000      -1.30990000
