17
Properties=species:S:1:pos:R:3 gdb_4004=T pbc="F F F"
C        0.43040000       0.38990000       1.41800000
C        0.00000000       0.00110000      -0.00920000
C       -1.38560000      -0.58960000      -0.04150000
C       -1.55870000      -2.09750000      -0.01780000
C       -0.93320000      -2.76150000      -1.15860000
C       -0.41000000      -3.29570000      -2.09950000
N       -2.47580000       0.07610000      -0.04870000
O       -2.24590000       1.46220000      -0.02900000
H        1.44090000       0.80910000       1.41080000
H       -0.25030000       1.13780000       1.83130000
H        0.43380000      -0.47720000       2.08670000
H        0.01480000       0.89110000      -0.64420000
H        0.70280000      -0.72310000      -0.43170000
H       -1.12150000      -2.49370000       0.91030000
H       -2.62990000      -2.31940000       0.01440000
H        0.04320000      -3.77440000      -2.93190000
H       -3.14100000       1.81430000      -0.07430000
