19
Properties=species:S:1:pos:R:3 gdb_33143=T pbc="F F F"
N        0.40020000       1.45910000       0.15950000
C        0.20730000       0.06170000       0.06480000
C       -1.01700000      -0.56910000      -0.00540000
N       -0.79100000      -1.92610000      -0.06460000
C        0.55210000      -2.17100000      -0.00910000
C        1.21540000      -0.96230000       0.06120000
C        2.70950000      -0.79910000       0.07640000
C        3.30860000      -0.26430000       1.38040000
O        3.06660000       1.14120000       1.45710000
H        1.36320000       1.67510000       0.39120000
H        0.12960000       1.94950000      -0.68440000
H       -2.01470000      -0.16180000      -0.01340000
H       -1.50650000      -2.62790000      -0.11520000
H        0.94010000      -3.17730000      -0.04530000
H        3.17270000      -1.77130000      -0.12880000
H        3.03880000      -0.12540000      -0.72710000
H        2.86070000      -0.78780000       2.23560000
H        4.39310000      -0.45370000       1.39450000
H        3.07820000       1.40880000       2.37980000
