20
Properties=species:S:1:pos:R:3 gdb_39936=T pbc="F F F"
C       -0.28020000       1.47180000       0.03460000
C        1.16300000       1.06900000      -0.05770000
C        0.08340000      -0.00200000       0.02290000
C       -0.02450000      -0.77350000       1.28150000
C       -0.08070000      -2.10430000       1.30330000
C       -0.01040000      -2.94460000       0.05500000
N       -0.25460000      -2.25090000      -1.21350000
C       -1.51620000      -1.52220000      -1.33710000
C       -0.22500000      -0.78500000      -1.22560000
H       -0.64140000       1.89460000       0.96650000
H       -0.75810000       1.87490000      -0.85210000
H        1.67180000       1.19220000      -1.00840000
H        1.79790000       1.21270000       0.80960000
H       -0.04550000      -0.20410000       2.20800000
H       -0.14590000      -2.63560000       2.24930000
H        0.98660000      -3.40450000      -0.01200000
H       -0.71870000      -3.78120000       0.11860000
H       -2.02080000      -1.61970000      -2.29510000
H       -2.17450000      -1.48460000      -0.47130000
H        0.20660000      -0.36790000      -2.13520000
