17
Properties=species:S:1:pos:R:3 gdb_36277=T pbc="F F F"
N        0.30330000      -1.08340000       1.22410000
C        0.08960000      -0.07390000       0.70530000
C       -0.20690000       1.20860000       0.04170000
N        1.01500000       1.98800000      -0.11510000
C        1.52730000       2.73230000      -1.22640000
C        0.56640000       3.77140000      -1.90120000
C       -0.82020000       3.83950000      -1.32480000
C        0.32680000       4.41960000      -0.54560000
C        1.29020000       3.37450000       0.11610000
H       -0.67020000       0.98350000      -0.92530000
H       -0.94750000       1.73610000       0.65290000
H        2.45520000       2.41500000      -1.69000000
H        0.82890000       4.25790000      -2.83130000
H       -1.44400000       4.59430000      -1.79620000
H       -1.38410000       2.97380000      -1.01040000
H        0.38080000       5.47070000      -0.29480000
H        1.99980000       3.64870000       0.88940000
