21
Properties=species:S:1:pos:R:3 gdb_109397=T pbc="F F F"
O        0.04490000       1.43970000       0.34300000
C        0.02810000       0.04480000       0.12090000
C       -1.38040000      -0.47040000      -0.04190000
C       -2.43020000       0.35200000      -0.00870000
C       -3.88270000      -0.04270000      -0.12780000
C       -4.22680000      -0.99330000      -1.27980000
O       -3.74000000      -2.31160000      -1.11270000
C       -2.35640000      -2.47510000      -1.34570000
C       -1.46230000      -1.97470000      -0.20550000
H        0.96100000       1.71950000       0.41930000
H        0.60700000      -0.22180000      -0.78270000
H        0.50540000      -0.49940000       0.95680000
H       -2.22610000       1.40650000       0.14590000
H       -4.22820000      -0.50940000       0.80640000
H       -4.48930000       0.86170000      -0.25570000
H       -5.31540000      -1.09400000      -1.35010000
H       -3.86230000      -0.57210000      -2.23100000
H       -2.20770000      -3.55370000      -1.46800000
H       -2.06590000      -1.98380000      -2.28890000
H       -0.45480000      -2.37770000      -0.37600000
H       -1.81820000      -2.43400000       0.72750000
