21
Properties=species:S:1:pos:R:3 gdb_109592=T pbc="F F F"
C       -0.33460000       1.32190000      -0.13830000
O        0.07790000      -0.02680000       0.03560000
C        0.75760000      -0.56160000      -1.08820000
C        1.19570000      -2.01680000      -0.75910000
C        1.62500000      -2.38290000       0.65280000
C       -0.17340000      -2.50050000      -1.32030000
O       -1.22530000      -2.53550000      -0.36640000
C       -0.23910000      -1.17580000      -2.13810000
O       -1.50820000      -0.61270000      -2.29890000
H        0.53650000       1.97490000      -0.29510000
H       -1.02030000       1.42440000      -0.98480000
H       -0.83780000       1.62180000       0.78410000
H        1.51930000       0.14530000      -1.44390000
H        1.97280000      -2.30530000      -1.47570000
H        0.87180000      -2.10140000       1.39130000
H        1.79480000      -3.46110000       0.73610000
H        2.55590000      -1.87220000       0.91930000
H       -0.21020000      -3.45060000      -1.85770000
H       -1.09080000      -1.77540000       0.21950000
H        0.24460000      -1.26810000      -3.11670000
H       -2.06890000      -1.06960000      -1.65420000
