17
Properties=species:S:1:pos:R:3 gdb_15769=T pbc="F F F"
C       -0.13540000       1.42530000      -0.08060000
C       -0.02980000      -0.02600000      -0.05010000
C        0.06830000      -1.22650000      -0.03370000
C        0.16110000      -2.68810000       0.00360000
O       -1.13370000      -3.29450000       0.03430000
C        0.90880000      -3.23680000      -1.20830000
C        0.65060000      -4.61610000      -1.67950000
N        0.19690000      -3.45100000      -2.46900000
H        0.84480000       1.89190000       0.06610000
H       -0.53040000       1.77590000      -1.04010000
H       -0.79850000       1.79350000       0.70980000
H        0.72320000      -2.98030000       0.90620000
H       -1.72220000      -2.69660000       0.50420000
H        1.90460000      -2.81350000      -1.31560000
H        1.45460000      -5.19150000      -2.12970000
H       -0.09910000      -5.19630000      -1.15160000
H       -0.79690000      -3.32070000      -2.28640000
