17
Properties=species:S:1:pos:R:3 gdb_26855=T pbc="F F F"
C        0.12100000       1.48750000       0.01510000
C       -0.06300000       0.00500000       0.00800000
C       -1.23050000      -0.68080000      -0.00630000
N       -2.51060000      -0.08790000       0.06500000
C       -1.16090000      -2.12290000      -0.01080000
C        0.02200000      -2.76570000       0.00150000
C        1.26750000      -2.02800000       0.04010000
N        2.41470000      -2.58100000       0.06210000
O        1.14360000      -0.64730000       0.05540000
H        1.00270000       1.75190000      -0.57590000
H       -0.74260000       2.00320000      -0.41420000
H        0.27580000       1.87760000       1.02880000
H       -2.49810000       0.91690000      -0.04590000
H       -3.15790000      -0.48690000      -0.60510000
H       -2.09380000      -2.67920000      -0.01570000
H        0.10390000      -3.84450000      -0.00670000
H        3.15010000      -1.87410000       0.08990000
