16
Properties=species:S:1:pos:R:3 gdb_37341=T pbc="F F F"
N       -0.02980000       1.48350000       0.02250000
C        1.28620000       0.80340000      -0.00450000
C        0.03700000       0.00350000       0.00350000
C        0.05200000      -0.65290000      -1.40490000
O        1.46060000      -0.86020000      -1.60170000
C        1.86330000       0.50700000      -1.41650000
C        0.98200000       1.23290000      -2.44860000
O        0.63120000       0.41540000      -3.56690000
C       -0.24800000       0.44520000      -2.44070000
H       -0.22120000       1.79180000       0.97440000
H        1.94650000       0.86900000       0.85220000
H       -0.29090000      -0.56380000       0.86660000
H       -0.47810000      -1.59960000      -1.49390000
H        2.94410000       0.59190000      -1.51580000
H        1.01480000       2.30590000      -2.59430000
H       -1.23760000       0.86350000      -2.57990000
