15
Properties=species:S:1:pos:R:3 gdb_54074=T pbc="F F F"
N        0.09520000       1.21750000       0.51400000
C       -0.03000000       0.09090000      -0.22130000
O        0.78540000      -0.29450000      -1.03180000
C       -1.34950000      -0.71600000      -0.02360000
C       -1.04830000      -2.22910000      -0.02840000
C       -2.25990000      -3.07330000      -0.36360000
O       -2.53690000      -4.11040000       0.17460000
C       -2.11530000      -0.29540000       1.14780000
N       -2.68750000       0.07680000       2.08130000
H        0.93590000       1.76150000       0.40580000
H       -0.56870000       1.47410000       1.22550000
H       -1.95280000      -0.48200000      -0.91250000
H       -0.30010000      -2.37820000      -0.81810000
H       -0.62100000      -2.56390000       0.91920000
H       -2.88560000      -2.66710000      -1.19430000
