23
Properties=species:S:1:pos:R:3 gdb_123083=T pbc="F F F"
C       -0.07130000       1.54260000       0.01080000
C        0.08860000       0.03100000       0.00160000
O        1.17850000      -0.49390000      -0.01140000
C       -1.20050000      -0.78240000       0.00950000
C       -0.98180000      -2.29460000      -0.00100000
C       -2.29210000      -3.08850000       0.00750000
C       -2.07110000      -4.60390000      -0.00300000
C       -3.37190000      -5.39560000       0.00540000
O       -3.04620000      -6.77750000      -0.00550000
H        0.90960000       2.01920000       0.00510000
H       -0.64600000       1.87160000      -0.86240000
H       -0.63140000       1.86250000       0.89680000
H       -1.78730000      -0.47540000       0.88770000
H       -1.80420000      -0.46580000      -0.85370000
H       -0.38660000      -2.56430000      -0.88080000
H       -0.36960000      -2.57390000       0.86400000
H       -2.88240000      -2.81010000       0.89220000
H       -2.89960000      -2.80040000      -0.86240000
H       -1.49310000      -4.89450000      -0.88880000
H       -1.47590000      -4.90410000       0.86800000
H       -3.96150000      -5.13220000       0.89940000
H       -3.97890000      -5.12240000      -0.87400000
H       -3.86590000      -7.28010000      -0.00010000
