23
Properties=species:S:1:pos:R:3 gdb_58774=T pbc="F F F"
C        0.13860000       1.47120000       0.07970000
C       -0.09420000      -0.04580000      -0.02810000
C       -1.59270000      -0.38250000      -0.06750000
C        0.62070000      -0.59570000      -1.23030000
C        2.07190000      -0.96660000      -1.33530000
C        1.00450000      -1.97890000      -1.72580000
C        0.88670000      -3.35340000      -1.13560000
C        0.40390000      -1.52040000      -3.05110000
O        0.14630000      -0.19040000      -2.52870000
H        1.20540000       1.70340000       0.15410000
H       -0.25650000       1.98200000      -0.80410000
H       -0.36380000       1.88050000       0.96180000
H        0.35290000      -0.52780000       0.85220000
H       -2.05190000       0.03610000      -0.96780000
H       -1.75720000      -1.46470000      -0.07710000
H       -2.10850000       0.03060000       0.80510000
H        2.69660000      -0.49250000      -2.08860000
H        2.57070000      -1.18530000      -0.39500000
H        1.13760000      -3.34800000      -0.06990000
H       -0.13050000      -3.74890000      -1.23700000
H        1.56830000      -4.05890000      -1.62650000
H        1.05620000      -1.50210000      -3.93320000
H       -0.53770000      -2.02560000      -3.30070000
