19
Properties=species:S:1:pos:R:3 gdb_83699=T pbc="F F F"
C       -0.27820000       1.52330000       0.05820000
C       -0.09110000       0.04110000      -0.01310000
C       -0.05420000      -0.73170000      -1.10300000
C        0.14970000      -2.18220000      -0.77370000
O        1.50640000      -2.65540000      -1.01290000
C        1.80050000      -2.60880000       0.39790000
C        0.35280000      -2.20510000       0.75830000
C        0.08900000      -0.76810000       1.26680000
O        1.07920000      -0.23160000       2.13710000
H        0.51750000       1.98490000       0.65270000
H       -0.29030000       1.98150000      -0.93380000
H       -1.22050000       1.77200000       0.56340000
H       -0.14610000      -0.37430000      -2.12350000
H       -0.58130000      -2.85700000      -1.23220000
H        2.12350000      -3.58460000       0.77720000
H        2.58310000      -1.87460000       0.63540000
H       -0.19020000      -2.96310000       1.32120000
H       -0.82610000      -0.74040000       1.87160000
H        1.89950000      -0.15410000       1.63750000
