20
Properties=species:S:1:pos:R:3 gdb_102706=T pbc="F F F"
O        0.12580000       1.36670000      -0.09770000
C        0.03290000      -0.04590000      -0.08330000
C       -1.41790000      -0.55530000      -0.06620000
C       -2.19740000      -0.06610000      -1.30240000
O       -3.59810000      -0.11020000      -1.14350000
C       -1.41520000      -2.07650000       0.05580000
O       -2.77250000      -2.54150000       0.04970000
C       -2.96720000      -3.85920000       0.26810000
N       -4.12510000      -4.34490000       0.16280000
H       -0.28120000       1.70100000       0.70840000
H        0.53690000      -0.38060000      -0.99810000
H        0.59030000      -0.47350000       0.76610000
H       -1.92270000      -0.14360000       0.81950000
H       -1.93540000       0.98010000      -1.48090000
H       -1.86380000      -0.64090000      -2.18550000
H       -3.83060000      -1.01450000      -0.90120000
H       -0.87730000      -2.52450000      -0.79210000
H       -0.92100000      -2.39740000       0.98280000
H       -2.04760000      -4.39600000       0.53820000
H       -4.11080000      -5.34020000       0.37480000
