16
Properties=species:S:1:pos:R:3 gdb_79619=T pbc="F F F"
O        0.19220000       1.35970000       0.00250000
C        0.02150000      -0.02610000      -0.00460000
C       -1.34170000      -0.64470000       0.06930000
C       -2.60500000       0.10200000      -0.33080000
C       -2.64750000       1.54310000      -0.71490000
N       -2.51920000       0.47970000      -1.74030000
C       -1.21370000       0.14160000      -2.21720000
O       -0.76080000       0.49890000      -3.27120000
C       -0.52020000      -0.76370000      -1.21040000
H        0.87900000       1.57800000      -0.63820000
H        0.79170000      -0.56630000       0.54630000
H       -1.47400000      -1.48010000       0.74600000
H       -3.53160000      -0.38280000      -0.03450000
H       -3.60530000       2.05550000      -0.73100000
H       -1.78060000       2.15650000      -0.51540000
H       -0.01540000      -1.65090000      -1.57350000
