17
Properties=species:S:1:pos:R:3 gdb_18773=T pbc="F F F"
C       -0.00800000       1.45470000       0.02190000
C       -0.04370000      -0.04150000       0.03300000
C        0.43860000      -1.04720000      -1.00780000
C        1.15890000      -0.95140000       0.30750000
N        0.56010000      -2.18830000       0.89850000
C       -0.52390000      -1.66650000       1.81400000
C       -1.14790000      -0.98860000       0.58040000
C       -0.43730000      -2.08770000      -0.27810000
H        0.93590000       1.82070000      -0.39740000
H       -0.82020000       1.87830000      -0.57980000
H       -0.09740000       1.86170000       1.03650000
H        0.78370000      -0.93690000      -2.02680000
H        2.15400000      -0.59880000       0.54840000
H       -1.11330000      -2.50810000       2.19120000
H       -0.17430000      -1.04920000       2.64780000
H       -2.19370000      -0.69430000       0.48880000
H       -0.88470000      -3.00140000      -0.66420000
