19
Properties=species:S:1:pos:R:3 gdb_37604=T pbc="F F F"
C       -0.08420000       1.02470000      -0.53540000
C        1.36400000       1.12900000       0.05700000
C        0.75690000       0.43690000       1.29220000
C        1.68420000      -1.03170000      -0.98840000
C        0.68590000      -1.86960000      -1.12660000
C       -0.10810000      -2.36560000       0.08830000
C       -1.09450000      -1.25390000       0.60420000
C       -0.33430000       0.04520000       0.61380000
C        2.28780000       0.04530000      -0.55100000
H       -0.64440000       1.95830000      -0.42800000
H       -0.16830000       0.66750000      -1.56340000
H        1.84770000       2.10820000       0.12170000
H        1.22720000       0.09510000       2.20800000
H        0.27350000      -2.08280000      -2.11200000
H       -0.66570000      -3.27470000      -0.15780000
H        0.58090000      -2.60840000       0.90160000
H       -1.96850000      -1.19110000      -0.05310000
H       -1.45610000      -1.53500000       1.59970000
H        3.36100000       0.12990000      -0.40880000
