15
Properties=species:S:1:pos:R:3 gdb_55010=T pbc="F F F"
N        0.10080000       1.15360000       0.12360000
C        0.00730000      -0.14210000      -0.44790000
N        1.12630000      -0.94740000      -0.07900000
H        1.21910000      -1.74280000      -0.70100000
H        1.98910000      -0.41620000      -0.11850000
C       -1.30830000      -0.82210000      -0.07730000
O       -2.43000000      -0.06040000      -0.50640000
C       -2.00890000      -1.18320000      -1.30920000
C       -1.13820000      -0.73560000      -2.46010000
O       -1.30830000      -0.94430000      -3.62800000
O       -0.08700000      -0.05030000      -1.95780000
H        0.86920000       1.67500000      -0.28690000
H       -0.75740000       1.66180000      -0.06280000
H       -1.38560000      -1.35060000       0.86630000
H       -2.71920000      -1.99260000      -1.42790000
