19
Properties=species:S:1:pos:R:3 gdb_5844=T pbc="F F F"
C        0.02930000       1.45290000       0.13240000
N       -0.10010000       0.01450000       0.22720000
C       -1.23230000      -0.64490000      -0.12150000
O       -2.25650000      -0.10480000      -0.50970000
C       -1.13010000      -2.18860000      -0.01950000
C       -2.35860000      -2.72230000       0.72020000
C       -1.04200000      -2.74700000      -1.44340000
O        0.08010000      -2.58790000       0.64330000
H        0.79260000       1.74020000      -0.60000000
H       -0.93640000       1.84640000      -0.18860000
H        0.29330000       1.89400000       1.10000000
H        0.68440000      -0.56280000       0.48750000
H       -3.26870000      -2.36200000       0.23840000
H       -2.35270000      -3.81600000       0.72530000
H       -2.37390000      -2.36640000       1.75800000
H       -0.11420000      -2.41910000      -1.92110000
H       -1.04940000      -3.84020000      -1.41890000
H       -1.88640000      -2.38940000      -2.03590000
H       -0.09130000      -2.58950000       1.59110000
