20
Properties=species:S:1:pos:R:3 gdb_63919=T pbc="F F F"
C       -0.25430000       1.61260000       0.07460000
C       -0.01880000       0.10010000       0.00580000
C       -1.35400000      -0.65250000      -0.00890000
O        0.68290000      -0.25070000      -1.21550000
C        1.96720000      -0.73460000      -0.86340000
C        2.79860000       0.35270000      -0.15220000
N        2.33760000      -0.12630000       1.20060000
C        1.84520000      -1.39390000       0.53360000
C        0.88040000      -0.45220000       1.11320000
H        0.68160000       2.17150000       0.12030000
H       -0.81240000       1.94460000      -0.80570000
H       -0.83980000       1.86370000       0.96520000
H       -1.91800000      -0.37950000      -0.90550000
H       -1.18440000      -1.73250000      -0.02850000
H       -1.96080000      -0.40700000       0.86850000
H        2.38970000      -1.27240000      -1.71150000
H        3.87600000       0.17510000      -0.21210000
H        2.58390000       1.39490000      -0.40300000
H        2.10030000      -2.39080000       0.87030000
H        0.44390000      -0.62850000       2.09020000
