21
Properties=species:S:1:pos:R:3 gdb_59271=T pbc="F F F"
C        0.02070000       1.51900000      -0.10880000
C        0.06370000       0.01410000       0.16310000
O        0.64120000      -0.26290000       1.44180000
C       -1.31510000      -0.61430000       0.04680000
C       -1.89890000      -1.21670000      -1.21440000
C       -0.95290000      -1.63410000      -2.32600000
O        0.09360000      -2.37730000      -1.70750000
C       -0.39980000      -2.97330000      -0.50610000
C       -1.55170000      -2.10230000      -0.03820000
H        1.01710000       1.95400000       0.00640000
H       -0.33790000       1.72660000      -1.12240000
H       -0.65590000       2.02380000       0.59310000
H        0.74390000      -0.46250000      -0.54570000
H        0.05730000       0.10830000       2.11280000
H       -2.05940000      -0.09250000       0.64970000
H       -2.92600000      -0.99370000      -1.48040000
H       -1.49950000      -2.24880000      -3.05950000
H       -0.48310000      -0.80370000      -2.86540000
H       -0.75790000      -3.99800000      -0.69310000
H        0.43690000      -3.01820000       0.19800000
H       -2.31550000      -2.55700000       0.58220000
