16
Properties=species:S:1:pos:R:3 gdb_90701=T pbc="F F F"
O        0.00100000       1.45590000       0.17470000
C        0.06080000       0.06090000       0.01050000
C        0.28520000      -0.75660000       1.31560000
N       -1.15500000      -1.13730000       1.31410000
C       -1.38210000      -0.55390000      -0.02340000
C       -2.61100000       0.28660000       0.13590000
C       -3.02550000       0.22690000       1.40550000
C       -2.02460000      -0.51480000       2.22970000
O       -1.90440000      -0.53330000       3.43310000
H        0.88260000       1.77340000       0.39720000
H        0.69430000      -0.22520000      -0.83890000
H        0.94610000      -1.62150000       1.21180000
H        0.56890000      -0.17260000       2.19540000
H       -1.49310000      -1.30690000      -0.81260000
H       -3.09720000       0.79530000      -0.68670000
H       -3.89490000       0.69620000       1.84450000
