14
Properties=species:S:1:pos:R:3 gdb_1772=T pbc="F F F"
N       -0.13400000       1.45070000       0.02510000
C       -0.04250000       0.01740000      -0.00690000
C       -0.43550000      -0.73490000       1.22980000
C       -1.37520000      -0.74060000       0.01960000
N       -2.58570000       0.03150000      -0.01240000
C       -1.42520000      -1.96820000      -0.74420000
N       -1.44650000      -2.96130000      -1.33720000
H        0.57430000       1.84530000       0.63470000
H        0.00030000       1.84490000      -0.90000000
H        0.73210000      -0.44010000      -0.62040000
H        0.10730000      -1.63960000       1.47740000
H       -0.78440000      -0.15000000       2.07400000
H       -3.22770000      -0.26450000       0.71500000
H       -2.34030000       1.00530000       0.14830000
