17
Properties=species:S:1:pos:R:3 gdb_126859=T pbc="F F F"
C       -0.04700000       1.63570000       0.21020000
C       -0.11050000       0.12720000      -0.02740000
N       -1.47080000      -0.37980000      -0.05590000
N       -2.21200000      -0.53610000       1.07150000
N       -3.36040000      -0.97520000       0.74120000
N       -3.39200000      -1.11080000      -0.61050000
C       -4.55540000      -1.59430000      -1.31650000
C       -2.18880000      -0.73560000      -1.18520000
O       -1.85580000      -0.72550000      -2.35320000
H        0.99590000       1.96520000       0.23130000
H       -0.56280000       2.17680000      -0.58800000
H       -0.51100000       1.89650000       1.16520000
H        0.31680000      -0.13780000      -0.99810000
H        0.43430000      -0.41580000       0.75010000
H       -5.41000000      -0.93390000      -1.14970000
H       -4.29610000      -1.60130000      -2.37660000
H       -4.81040000      -2.60640000      -0.99200000
