19
Properties=species:S:1:pos:R:3 gdb_109344=T pbc="F F F"
C        0.07020000       1.35070000       0.10290000
O        0.05260000      -0.06800000      -0.04210000
C        0.58410000      -0.55050000      -1.17720000
N        1.04630000       0.21470000      -2.07900000
C        1.67250000      -0.39280000      -3.24580000
C        1.08940000      -1.76100000      -3.63190000
C        0.84990000      -2.63060000      -2.41910000
C        1.78310000      -2.68420000      -1.26850000
N        0.48980000      -1.96840000      -1.15140000
H        1.09280000       1.73640000       0.05960000
H       -0.51090000       1.83050000      -0.68960000
H       -0.37490000       1.55110000       1.07860000
H        1.57110000       0.29970000      -4.08810000
H        2.75320000      -0.48120000      -3.06540000
H        0.12530000      -1.61200000      -4.13310000
H        1.74430000      -2.27030000      -4.34780000
H        0.24120000      -3.51450000      -2.59970000
H        1.85670000      -3.58130000      -0.66130000
H        2.68620000      -2.08150000      -1.30340000
