17
Properties=species:S:1:pos:R:3 gdb_56538=T pbc="F F F"
C        0.07560000       1.47500000      -0.04950000
C        0.06450000      -0.02850000      -0.01420000
O        1.07850000      -0.69630000      -0.02410000
C       -1.28040000      -0.78060000       0.01260000
O       -1.05970000      -2.12880000      -0.27790000
C       -1.96800000      -0.66140000       1.41560000
O       -2.26400000       0.68840000       1.76530000
C       -3.16800000      -1.49230000       1.45970000
C       -4.20220000      -2.10390000       1.48150000
H        1.10260000       1.84080000      -0.02310000
H       -0.41420000       1.82130000      -0.96750000
H       -0.50800000       1.86840000       0.78680000
H       -1.96030000      -0.33470000      -0.72870000
H       -0.09410000      -2.23760000      -0.22690000
H       -1.24600000      -1.01930000       2.15960000
H       -3.14050000       0.89200000       1.42100000
H       -5.10140000      -2.66870000       1.50770000
