17
Properties=species:S:1:pos:R:3 gdb_68003=T pbc="F F F"
O       -0.06800000       1.33020000       0.03980000
C        0.03580000      -0.05830000      -0.01980000
C        1.01740000      -0.68100000      -0.99840000
C        0.38260000      -2.04630000      -1.32940000
O        0.74580000      -2.81210000      -2.18250000
C       -0.77360000      -2.23640000      -0.35600000
C       -0.15070000      -2.31600000       1.09270000
C       -0.38440000      -0.81450000       1.23700000
C       -1.26660000      -0.80670000      -0.00960000
H        0.68140000       1.66710000       0.54290000
H        1.07910000      -0.07390000      -1.90770000
H        2.03690000      -0.81580000      -0.62020000
H       -1.47280000      -3.01950000      -0.63780000
H       -0.81110000      -2.88750000       1.74850000
H        0.86890000      -2.70610000       1.18740000
H       -0.52560000      -0.26600000       2.16110000
H       -2.23260000      -0.35960000      -0.19800000
