20
Properties=species:S:1:pos:R:3 gdb_62137=T pbc="F F F"
C        0.11790000       1.38380000       0.29450000
C        0.05640000      -0.11240000      -0.02480000
C        0.81120000      -0.96040000       1.01530000
N        2.23010000      -0.65710000       1.09250000
C        2.82150000      -0.11620000       2.19270000
O        2.25380000       0.17610000       3.22340000
C       -1.40360000      -0.62040000      -0.11700000
C       -2.16510000      -0.00880000      -1.19870000
C       -2.77390000       0.49960000      -2.10210000
H        1.15190000       1.73740000       0.32120000
H       -0.42380000       1.96150000      -0.45880000
H       -0.32930000       1.59140000       1.27320000
H        0.52140000      -0.28200000      -1.00610000
H        0.41050000      -0.78220000       2.01720000
H        0.68080000      -2.02640000       0.78720000
H        2.81300000      -0.85740000       0.29500000
H        3.90960000       0.02960000       2.04010000
H       -1.40310000      -1.71040000      -0.25110000
H       -1.90970000      -0.43180000       0.83980000
H       -3.32310000       0.94430000      -2.89450000
