19
Properties=species:S:1:pos:R:3 gdb_81533=T pbc="F F F"
C       -0.15930000       1.57030000       0.69780000
C       -0.11740000       0.07120000       0.46650000
C        1.07910000      -0.53180000      -0.32370000
O        1.96240000      -0.19620000       0.81580000
C        0.75230000      -0.80840000       1.40980000
C        0.82710000      -1.94720000       0.32260000
C       -0.37420000      -2.80760000      -0.04120000
C        2.08210000      -2.79450000       0.42390000
O        2.08520000      -3.98770000       0.23400000
H        0.83160000       1.95360000       0.94630000
H       -0.52160000       2.08760000      -0.19710000
H       -0.84550000       1.81430000       1.51590000
H       -1.10130000      -0.32710000       0.21750000
H        1.44510000      -0.29960000      -1.32550000
H        0.72490000      -0.90930000       2.49620000
H       -1.30460000      -2.24640000      -0.12650000
H       -0.19010000      -3.31800000      -0.99050000
H       -0.51020000      -3.59020000       0.71010000
H        3.00420000      -2.24720000       0.68490000
