12
Properties=species:S:1:pos:R:3 gdb_129220=T pbc="F F F"
N       -0.05590000       1.37750000       0.01100000
C       -0.02340000       0.10150000       0.00360000
N        1.13000000      -0.70660000      -0.00710000
N        1.20420000      -2.05050000      -0.01510000
N        0.14350000      -2.73870000      -0.01330000
C       -1.09010000      -2.06600000      -0.00290000
C       -1.21680000      -0.71930000       0.00540000
C       -2.23510000      -2.92740000      -0.00160000
N       -3.17160000      -3.60570000      -0.00040000
H        0.87630000       1.79420000       0.00840000
H        2.04310000      -0.27230000      -0.00960000
H       -2.17790000      -0.22180000       0.01340000
