19
Properties=species:S:1:pos:R:3 gdb_92177=T pbc="F F F"
C       -0.20240000       1.54210000       0.04020000
C        0.04990000       0.03000000       0.00960000
C        0.85810000      -0.45250000      -1.23640000
C        2.31470000      -0.62550000      -0.81770000
O        2.72060000       0.57040000      -0.07100000
C        2.36240000      -0.10500000       1.13690000
C        2.40970000      -1.48810000       0.50250000
O        1.13640000      -1.87990000       1.01540000
C        0.82630000      -0.46250000       1.23290000
H        0.73710000       2.09730000       0.00070000
H       -0.81350000       1.84590000      -0.81600000
H       -0.74190000       1.83200000       0.94920000
H       -0.91720000      -0.48540000       0.01970000
H        0.47120000      -1.40800000      -1.60340000
H        0.78740000       0.27200000      -2.05350000
H        3.00710000      -0.84130000      -1.63450000
H        2.88190000       0.25330000       2.02590000
H        3.18640000      -2.24850000       0.58680000
H        0.31590000      -0.30410000       2.18630000
