18
Properties=species:S:1:pos:R:3 gdb_74572=T pbc="F F F"
C       -0.06030000       1.50460000       0.05370000
C        0.02180000       0.01260000      -0.01750000
C        0.03990000      -0.74100000      -1.12260000
C        0.06730000      -2.21190000      -0.83270000
C        0.02770000      -2.28260000       0.73260000
C        0.09890000      -0.83100000       1.24200000
N       -1.31330000      -2.86110000       0.59720000
C       -1.34850000      -2.87270000      -0.77750000
O       -2.16940000      -3.24020000      -1.57210000
H        0.79220000       1.92400000       0.60350000
H       -0.07980000       1.95570000      -0.94170000
H       -0.96300000       1.82500000       0.58970000
H       -0.00580000      -0.35300000      -2.13390000
H        0.82070000      -2.79220000      -1.36950000
H        0.73920000      -2.95660000       1.21600000
H        1.03160000      -0.64090000       1.79000000
H       -0.71880000      -0.60970000       1.94090000
H       -2.01240000      -3.10840000       1.28270000
