21
Properties=species:S:1:pos:R:3 gdb_87869=T pbc="F F F"
C       -0.18690000       1.48640000       0.27300000
C       -0.07200000      -0.02060000       0.22280000
C        1.18730000      -0.67920000      -0.28860000
C        0.83000000      -0.75590000       1.17190000
C        1.64620000      -0.21260000       2.36340000
C        1.29710000      -1.50430000       3.15650000
C       -0.06820000      -1.48100000       3.86740000
O       -0.76050000      -1.93820000       2.68160000
C        0.47720000      -2.02740000       1.94160000
H        0.77340000       1.95000000       0.52230000
H       -0.50700000       1.89010000      -0.69390000
H       -0.91630000       1.80600000       1.02560000
H       -1.00210000      -0.53540000      -0.00650000
H        1.10220000      -1.58280000      -0.88490000
H        2.01750000      -0.03640000      -0.56870000
H        2.71480000      -0.10660000       2.15530000
H        1.28920000       0.71890000       2.81490000
H        2.10980000      -2.04930000       3.63380000
H       -0.17430000      -2.20110000       4.68870000
H       -0.42110000      -0.49860000       4.20770000
H        0.59230000      -2.99560000       1.44490000
