16
Properties=species:S:1:pos:R:3 gdb_54785=T pbc="F F F"
O        0.19450000       0.37670000      -0.96120000
C       -0.04720000       1.08040000      -0.01420000
O        0.82060000       1.26170000       0.98780000
C       -1.38240000       1.82120000       0.10180000
C       -2.12460000       1.78010000       1.49560000
N       -1.11120000       2.81150000       1.93260000
H       -1.46290000       3.43510000       2.65950000
H        0.38270000       1.87660000       1.63050000
C       -1.34280000       3.33940000       0.53630000
C       -2.84490000       3.67360000       0.53480000
C       -3.36950000       2.62730000       1.17850000
H       -1.98350000       1.58500000      -0.77210000
H       -2.21640000       0.87200000       2.08970000
H       -0.62260000       4.05060000       0.13430000
H       -3.31450000       4.53330000       0.08020000
H       -4.39530000       2.37780000       1.40620000
