17
Properties=species:S:1:pos:R:3 gdb_33954=T pbc="F F F"
N        0.10510000      -1.10780000       0.08010000
C        0.06160000       0.04680000       0.03840000
C       -0.03550000       1.48660000      -0.01880000
C        0.34140000       2.20750000      -1.27490000
N        1.23360000       2.25880000      -0.12060000
C        1.09800000       3.43970000       0.77010000
C       -0.24200000       3.36810000       1.50490000
C       -1.52350000       3.51100000       0.72510000
C       -0.96250000       2.13770000       0.99290000
H        0.72660000       1.63910000      -2.11710000
H       -0.23720000       3.08330000      -1.55240000
H        1.91600000       3.39440000       1.49480000
H        1.22680000       4.35710000       0.18510000
H       -0.24870000       3.61890000       2.55980000
H       -2.41220000       3.78260000       1.28530000
H       -1.50380000       3.92480000      -0.27630000
H       -1.49780000       1.46840000       1.65410000
