18
Properties=species:S:1:pos:R:3 gdb_13431=T pbc="F F F"
C        0.13890000       1.62810000      -0.26670000
C        0.03410000       0.12730000      -0.10120000
C        1.26980000      -0.72910000       0.01740000
O        2.50000000      -0.06640000       0.05280000
C        0.34420000      -0.59020000       1.20440000
C        0.83600000       0.15140000       2.44360000
C        1.94400000      -0.54780000       3.09490000
C        2.86780000      -1.14170000       3.58660000
H        1.08910000       2.00770000       0.11320000
H        0.08930000       1.89290000      -1.32800000
H       -0.67900000       2.14860000       0.24350000
H       -0.77650000      -0.32360000      -0.66780000
H        1.28580000      -1.68250000      -0.51040000
H        3.00250000      -0.42690000       0.79410000
H       -0.26700000      -1.45810000       1.43440000
H        1.16230000       1.16260000       2.18410000
H        0.00980000       0.27170000       3.15470000
H        3.67230000      -1.65910000       4.04810000
