16
Properties=species:S:1:pos:R:3 gdb_112501=T pbc="F F F"
O        0.11420000       1.15310000      -0.58400000
C        0.08540000      -0.14010000      -0.02040000
C       -1.36510000      -0.56880000       0.23120000
N       -2.17740000      -0.51650000      -1.02170000
C       -2.61130000      -1.94700000      -0.91060000
C       -2.37620000      -2.78750000      -2.06580000
C       -2.16260000      -3.50620000      -3.00500000
C       -1.63960000      -2.07480000       0.30910000
O       -1.26220000      -2.97680000       0.98630000
H       -0.39370000       1.08870000      -1.40320000
H        0.57530000      -0.87720000      -0.67420000
H        0.63860000      -0.10250000       0.92240000
H       -1.78610000      -0.00630000       1.07420000
H       -2.95800000       0.12750000      -0.97350000
H       -3.64730000      -2.06490000      -0.55990000
H       -1.97540000      -4.13680000      -3.83900000
