18
Properties=species:S:1:pos:R:3 gdb_72918=T pbc="F F F"
O        0.13210000       1.34170000      -0.29240000
C        0.05800000      -0.02470000       0.05340000
C        0.16160000      -0.99820000      -1.15040000
O       -1.25020000      -1.29250000      -1.08910000
C       -1.40360000      -0.53330000       0.12800000
C       -1.49940000      -1.35730000       1.39900000
N       -0.54320000      -2.48470000       1.41940000
C       -0.21030000      -1.25170000       2.14750000
C        0.76300000      -0.36270000       1.38790000
H        1.04730000       1.54700000      -0.51290000
H        0.43650000      -0.50990000      -2.09320000
H        0.76910000      -1.89370000      -0.98400000
H       -2.18990000       0.22390000       0.04950000
H       -2.45030000      -1.46910000       1.90880000
H       -0.87630000      -3.19310000       2.06770000
H       -0.18120000      -1.27060000       3.23280000
H        1.73430000      -0.84900000       1.24640000
H        0.92070000       0.57260000       1.93490000
