18
Properties=species:S:1:pos:R:3 gdb_18589=T pbc="F F F"
O       -0.21740000       1.42920000      -0.07700000
C        0.00330000       0.04520000       0.00080000
C        0.29510000      -0.63730000       1.40040000
C       -0.68740000      -1.78950000       0.99040000
C       -1.94680000      -2.21980000       1.77220000
C       -3.12430000      -1.88850000       0.79420000
C       -2.55310000      -0.77470000      -0.08050000
C       -1.22710000      -0.81630000      -0.02720000
H        0.63420000       1.86750000      -0.16720000
H        0.75610000      -0.28420000      -0.73200000
H        1.33320000      -0.89990000       1.62170000
H       -0.11840000      -0.01780000       2.20040000
H       -0.13970000      -2.63920000       0.56630000
H       -1.93560000      -3.26930000       2.08040000
H       -2.05120000      -1.61270000       2.67850000
H       -3.41590000      -2.76890000       0.20370000
H       -4.02520000      -1.56710000       1.32830000
H       -3.16520000      -0.03010000      -0.57460000
