19
Properties=species:S:1:pos:R:3 gdb_88471=T pbc="F F F"
C        1.27930000       0.84730000      -0.63770000
C        0.10260000       0.14990000      -0.00610000
O        0.32300000      -1.10940000       0.65190000
C       -0.11120000      -0.00040000       1.43930000
C        0.83030000       0.53510000       2.49620000
O        0.62690000       1.93330000       2.51600000
C        0.76910000      -0.16870000       3.87840000
O        2.17600000      -0.46590000       3.84310000
C        2.30450000       0.05090000       2.50190000
H        2.14650000       0.88650000       0.02270000
H        1.57210000       0.33460000      -1.55980000
H        1.00160000       1.87450000      -0.89500000
H       -0.79800000       0.14940000      -0.62340000
H       -1.14390000      -0.07440000       1.78700000
H        1.11410000       2.30050000       3.26200000
H        0.49340000       0.48640000       4.71600000
H        0.15400000      -1.07720000       3.91470000
H        2.53400000      -0.73830000       1.78020000
H        3.04530000       0.85790000       2.43180000
