19
Properties=species:S:1:pos:R:3 gdb_84673=T pbc="F F F"
O        0.01860000       1.43310000       0.03120000
C        0.03000000       0.00040000       0.01180000
C        0.95100000      -0.56410000       1.06710000
C        0.52310000      -1.33640000       2.06550000
C       -0.93800000      -1.64670000       2.22810000
C       -1.81770000      -0.37980000       2.56200000
C       -2.40540000      -0.43960000       1.15290000
C       -1.71840000      -1.77950000       0.89560000
C       -1.37190000      -0.59310000       0.04990000
H       -0.37830000       1.69850000       0.86800000
H        0.46050000      -0.23240000      -0.97100000
H        1.99900000      -0.29310000       0.97260000
H        1.21800000      -1.70420000       2.81610000
H       -1.10780000      -2.46870000       2.92390000
H       -2.57490000      -0.60810000       3.31690000
H       -1.27780000       0.52210000       2.86920000
H       -3.41550000      -0.14220000       0.89640000
H       -2.11940000      -2.70400000       0.49790000
H       -1.85400000      -0.59700000      -0.92450000
