18
Properties=species:S:1:pos:R:3 gdb_55872=T pbc="F F F"
C       -0.06780000       1.48130000       0.17910000
C        0.06630000      -0.02820000       0.11740000
O        1.11810000      -0.59230000       0.31120000
C       -1.20940000      -0.80040000      -0.21710000
C       -1.03770000      -2.29380000      -0.08470000
C       -1.36410000      -2.99650000       1.19490000
C       -2.25090000      -3.21620000      -0.02520000
C       -3.57560000      -2.66320000      -0.04400000
N       -4.63850000      -2.20510000      -0.06290000
H        0.91530000       1.93720000       0.30070000
H       -0.55200000       1.86840000      -0.72390000
H       -0.70580000       1.76270000       1.02510000
H       -2.03050000      -0.43400000       0.41080000
H       -1.49670000      -0.53030000      -1.24380000
H       -0.19920000      -2.69430000      -0.64340000
H       -0.74900000      -3.83040000       1.51070000
H       -1.78670000      -2.41150000       2.00420000
H       -2.16590000      -4.17080000      -0.53290000
