20
Properties=species:S:1:pos:R:3 gdb_69438=T pbc="F F F"
C        0.19990000       1.43160000       0.32690000
C        0.09420000      -0.04650000       0.04600000
C       -1.01860000      -0.86200000       0.60550000
N        0.33850000      -0.98130000       1.16820000
C        1.09560000      -2.13760000       0.62840000
C        0.97120000      -2.08750000      -0.92700000
C        0.75430000      -0.59160000      -1.21720000
C        2.48860000      -2.04440000       1.06490000
C        3.64230000      -1.97730000       1.39440000
H        1.24730000       1.75300000       0.32770000
H       -0.33080000       2.01210000      -0.43630000
H       -0.22970000       1.67400000       1.30210000
H       -1.73730000      -0.40140000       1.27780000
H       -1.42230000      -1.68330000       0.01840000
H        0.66200000      -3.06130000       1.02930000
H        1.85500000      -2.49630000      -1.41820000
H        0.11300000      -2.68160000      -1.25160000
H        0.15530000      -0.42060000      -2.11710000
H        1.71430000      -0.08320000      -1.36200000
H        4.65640000      -1.91700000       1.70330000
