11
Properties=species:S:1:pos:R:3 gdb_23731=T pbc="F F F"
F        0.01660000       0.01600000       0.00360000
C       -0.03090000       1.34820000       0.01070000
C       -1.19020000       2.02750000       0.02920000
O       -1.20900000       3.36580000       0.03590000
C       -0.00880000       4.09700000       0.02410000
N       -0.14920000       5.35250000       0.03330000
N        1.19750000       3.39930000       0.00470000
C        1.18270000       2.10830000      -0.00150000
H       -2.17610000       1.57910000       0.03990000
H        0.77530000       5.77910000       0.02380000
H        2.13520000       1.57820000      -0.01680000
