16
Properties=species:S:1:pos:R:3 gdb_36634=T pbc="F F F"
N       -0.02320000      -1.04080000      -0.51980000
C        0.00770000       0.05490000      -0.15670000
C        0.04490000       1.43510000       0.33560000
N        1.37870000       1.99280000       0.23010000
C        1.51450000       3.34940000       0.15660000
N        0.57900000       4.19560000      -0.02850000
C        1.23890000       5.50120000      -0.13950000
C        2.73280000       5.21590000       0.17910000
O        2.80050000       3.77300000       0.26370000
H       -0.61980000       2.06270000      -0.26520000
H       -0.34890000       1.45190000       1.36250000
H        2.13640000       1.49540000       0.67110000
H        1.10650000       5.91230000      -1.14760000
H        0.79970000       6.21790000       0.56200000
H        3.42440000       5.54280000      -0.60070000
H        3.05680000       5.62910000       1.13920000
