18
Properties=species:S:1:pos:R:3 gdb_15076=T pbc="F F F"
O        0.12600000       1.36890000      -0.07540000
C       -0.00530000      -0.03010000       0.10730000
C       -1.45600000      -0.51330000      -0.03650000
C       -2.03190000      -0.03290000      -1.35850000
O       -3.05940000       0.58080000      -1.47830000
C       -1.54640000      -2.03040000       0.03690000
C       -1.68630000      -2.72010000       1.37310000
C       -2.84550000      -2.69900000       0.41000000
H       -0.41660000       1.81110000       0.58590000
H        0.61590000      -0.48720000      -0.67200000
H        0.39540000      -0.36240000       1.07640000
H       -2.07440000      -0.07550000       0.75790000
H       -1.42470000      -0.32180000      -2.24910000
H       -0.93960000      -2.54640000      -0.70370000
H       -1.15700000      -3.65400000       1.52610000
H       -1.75170000      -2.09730000       2.25940000
H       -3.68950000      -2.05850000       0.64250000
H       -3.11270000      -3.61920000      -0.09690000
