17
Properties=species:S:1:pos:R:3 gdb_85157=T pbc="F F F"
C       -0.46750000       1.40650000      -0.08000000
C       -0.03580000      -0.04570000      -0.06470000
N        1.24380000      -0.33000000      -0.81890000
C        1.89800000      -0.66380000       0.29600000
N        3.14570000      -0.86740000       0.64120000
H        3.91520000      -0.65820000       0.02270000
H        3.19450000      -0.69390000       1.68200000
C        0.73600000      -0.56930000       1.19590000
C        1.09840000       0.32820000       2.49290000
O        2.23350000       0.02360000       2.93510000
O        0.23530000       1.11090000       2.86060000
H        0.34970000       2.06670000       0.21840000
H       -0.82940000       1.69610000      -1.07270000
H       -1.26720000       1.54480000       0.65010000
H       -0.83650000      -0.70620000      -0.40830000
H        1.59770000       0.06270000      -1.68120000
H        0.37800000      -1.51930000       1.59510000
