14
Properties=species:S:1:pos:R:3 gdb_21255=T pbc="F F F"
C        0.00980000       1.41340000       0.08560000
O        0.01020000      -0.01780000       0.01100000
C        0.61490000      -0.67410000       0.99340000
C        0.77780000      -2.01490000       1.17050000
C        1.50480000      -2.07760000       2.39310000
N        1.99990000      -3.21810000       3.00100000
N        1.74590000      -0.88940000       2.91270000
O        1.17060000       0.02510000       1.98530000
H        1.03110000       1.80420000       0.08130000
H       -0.52540000       1.75020000      -0.80180000
H       -0.50310000       1.75660000       0.98840000
H        0.45570000      -2.81380000       0.52650000
H        1.38830000      -4.01910000       2.93680000
H        2.30200000      -3.05300000       3.95220000
