21
Properties=species:S:1:pos:R:3 gdb_91097=T pbc="F F F"
O       -0.22310000       1.36300000       0.92030000
C       -0.02430000       0.14250000       0.22990000
C        0.51750000      -1.04960000       1.07600000
C       -0.86720000      -1.75950000       0.96260000
C       -1.81190000      -1.73620000       2.15650000
C       -1.93010000      -0.47220000       2.97980000
C       -2.92950000      -0.74520000       1.88820000
C       -2.69470000      -0.07360000       0.53410000
C       -1.35760000      -0.63190000      -0.00440000
H        0.64190000       1.71990000       1.14600000
H        0.54220000       0.32330000      -0.69380000
H        1.33490000      -1.59040000       0.59100000
H        0.82600000      -0.78360000       2.09050000
H       -0.82120000      -2.76490000       0.53700000
H       -2.01860000      -2.67670000       2.65610000
H       -2.26360000      -0.58670000       4.00610000
H       -1.21960000       0.33160000       2.82330000
H       -3.95210000      -0.97300000       2.16990000
H       -3.50810000      -0.33590000      -0.15060000
H       -2.67190000       1.01760000       0.60850000
H       -1.44710000      -0.93850000      -1.04900000
