15
Properties=species:S:1:pos:R:3 gdb_131648=T pbc="F F F"
O        0.10640000       1.28600000       0.52840000
C        0.04820000       0.00240000      -0.07620000
C       -1.36160000      -0.52920000      -0.14530000
C       -1.89220000      -1.27200000      -1.13390000
C       -3.25550000      -1.74930000      -0.99530000
N       -3.81960000      -2.50000000      -1.86270000
N       -3.97640000      -1.32240000       0.17570000
N       -3.44830000      -0.60970000       1.06800000
N       -2.15080000      -0.24040000       0.94310000
H       -0.27860000       1.92450000      -0.08220000
H        0.49280000      -0.01530000      -1.07910000
H        0.65400000      -0.64770000       0.56570000
H       -1.32700000      -1.53300000      -2.01970000
H       -4.77450000      -2.69730000      -1.55390000
H       -1.82520000       0.39920000       1.65170000
