18
Properties=species:S:1:pos:R:3 gdb_84238=T pbc="F F F"
C       -0.03760000       1.38970000       0.29200000
C       -0.07320000      -0.05100000      -0.14480000
C        0.67310000      -0.61100000      -1.28460000
N        1.31990000      -0.72930000       0.04850000
C        1.38890000      -2.25930000      -0.11670000
C        0.25640000      -2.07370000      -1.12050000
C       -0.98940000      -2.17620000      -0.61420000
C       -1.42570000      -0.79440000      -0.11180000
O       -1.92410000      -0.88730000       1.21020000
H        0.94740000       1.83010000       0.12990000
H       -0.77990000       1.97080000      -0.26750000
H       -0.28400000       1.46680000       1.35500000
H        1.13340000      -0.10550000      -2.12710000
H        2.39300000      -2.46620000      -0.50010000
H        1.18050000      -2.85750000       0.77400000
H       -1.29460000      -3.03120000      -0.01590000
H       -2.12630000      -0.22310000      -0.74410000
H       -2.85530000      -1.12620000       1.16830000
