23
Properties=species:S:1:pos:R:3 gdb_96567=T pbc="F F F"
C        0.05990000       1.64880000      -0.05980000
C        0.02690000       0.11460000      -0.04090000
C        0.70670000      -0.46670000      -1.30320000
C        0.78920000      -1.99600000      -1.32190000
O       -0.46510000      -2.60560000      -1.04320000
C       -0.56400000      -3.33100000       0.16670000
C       -0.87410000      -2.46140000       1.40310000
C        0.25400000      -1.55670000       1.84120000
C        0.63780000      -0.43860000       1.22160000
H        1.09070000       2.02040000      -0.01520000
H       -0.39520000       2.04200000      -0.97480000
H       -0.48200000       2.06750000       0.79410000
H       -1.01910000      -0.20930000      -0.08650000
H        0.14880000      -0.11950000      -2.18160000
H        1.72770000      -0.07230000      -1.40350000
H        1.10700000      -2.32680000      -2.32030000
H        1.54370000      -2.34160000      -0.60520000
H       -1.38720000      -4.03990000       0.02080000
H        0.35140000      -3.91710000       0.34100000
H       -1.77510000      -1.87860000       1.17630000
H       -1.13880000      -3.13930000       2.22320000
H        0.80420000      -1.87050000       2.72590000
H        1.48630000       0.11490000       1.62400000
