17
Properties=species:S:1:pos:R:3 gdb_125609=T pbc="F F F"
C        0.03020000       1.48820000      -0.04360000
C        0.01630000      -0.00480000       0.03300000
N       -0.01610000      -0.74750000      -1.08140000
N       -0.02000000      -2.01070000      -0.66070000
C        0.00900000      -2.12150000       0.69640000
C        0.00930000      -3.43080000       1.32710000
O       -0.01540000      -4.47250000       0.70140000
C        0.03350000      -0.81930000       1.19120000
C        0.06990000      -0.36220000       2.61570000
H        0.92680000       1.90660000       0.42790000
H        0.01020000       1.80700000      -1.08750000
H       -0.83560000       1.92500000       0.46720000
H       -0.04240000      -2.77930000      -1.31170000
H        0.03400000      -3.42280000       2.43570000
H        0.96130000       0.24320000       2.81690000
H       -0.79880000       0.26180000       2.85580000
H        0.07650000      -1.20140000       3.31530000
