18
Properties=species:S:1:pos:R:3 gdb_34118=T pbc="F F F"
C        0.05290000      -1.17520000      -0.07520000
C        0.02210000       0.02760000      -0.04770000
C        0.00580000       1.46350000       0.01270000
C       -0.37820000       2.27150000       1.28070000
N        0.42140000       3.40440000       0.71960000
C       -0.05290000       3.59410000      -0.74420000
C        1.38500000       3.26110000      -1.19720000
C        1.32230000       2.37630000       0.04220000
C       -0.79610000       2.27240000      -1.03910000
H        0.07670000      -2.23630000      -0.10240000
H       -1.43980000       2.46080000       1.46790000
H        0.10810000       1.91360000       2.19170000
H       -0.54370000       4.53730000      -0.97880000
H        1.52930000       2.81400000      -2.18270000
H        2.07700000       4.09060000      -1.03830000
H        2.18420000       1.99390000       0.58920000
H       -0.65460000       1.92850000      -2.06600000
H       -1.86550000       2.28380000      -0.81550000
