11
Properties=species:S:1:pos:R:3 gdb_21414=T pbc="F F F"
N       -0.11300000       1.24470000      -0.36840000
C       -0.01540000       0.02550000      -0.03880000
N       -1.12910000      -0.72800000       0.29130000
C       -1.02610000      -2.03940000       0.64610000
N        0.04750000      -2.73450000       0.72440000
O        1.25000000      -2.04230000       0.40180000
C        1.28830000      -0.73560000       0.03310000
O        2.33780000      -0.21780000      -0.22440000
H        0.82060000       1.60640000      -0.56990000
H       -2.02760000      -0.26700000       0.25950000
H       -1.94510000      -2.56030000       0.89040000
