16
Properties=species:S:1:pos:R:3 gdb_30004=T pbc="F F F"
C       -0.01390000       1.46230000       0.03190000
N       -0.00720000       0.01880000       0.03910000
C       -0.03550000      -0.83030000      -1.06720000
N       -0.02080000      -2.10570000      -0.76920000
C        0.02000000      -2.13100000       0.61390000
C        0.02840000      -0.83790000       1.10660000
N        0.06680000      -0.84750000       2.46950000
C        0.08460000      -2.19330000       2.85470000
C        0.05640000      -3.00500000       1.74460000
H        0.88900000       1.86770000       0.50300000
H       -0.04590000       1.80940000      -1.00270000
H       -0.89130000       1.85960000       0.55540000
H       -0.06640000      -0.41190000      -2.06340000
H        0.08480000      -0.06510000       3.09740000
H        0.11620000      -2.44470000       3.90250000
H        0.06150000      -4.08340000       1.75790000
