20
Properties=species:S:1:pos:R:3 gdb_94379=T pbc="F F F"
O        0.59960000       0.72590000      -0.73930000
C        0.14990000      -0.30820000       0.10230000
C       -0.02920000      -0.07660000       1.62450000
C       -1.24770000      -1.03920000       1.56370000
C       -1.32110000      -0.79850000       0.04160000
C       -2.44440000       0.11890000      -0.51820000
C       -2.76190000      -1.02720000      -1.47290000
C       -1.56490000      -1.44240000      -2.22720000
N       -1.72780000      -1.94190000      -0.84160000
H        0.09090000       1.51800000      -0.53560000
H        0.81510000      -1.15740000      -0.08660000
H        0.80440000      -0.32930000       2.28210000
H       -0.33940000       0.95380000       1.83180000
H       -0.96700000      -2.07510000       1.77140000
H       -2.13000000      -0.78470000       2.15470000
H       -3.22960000       0.30700000       0.21710000
H       -2.15920000       1.06860000      -0.98400000
H       -3.75770000      -1.38330000      -1.71640000
H       -1.68530000      -2.22610000      -2.96860000
H       -0.77680000      -0.72380000      -2.43680000
