19
Properties=species:S:1:pos:R:3 gdb_38770=T pbc="F F F"
C       -0.00000000       1.54440000      -0.01210000
C        1.30270000       0.78230000      -0.00510000
C        2.17200000       0.77790000       1.24090000
C        2.68300000      -0.61680000       1.54920000
O        2.60100000      -1.05670000       2.90850000
C        1.73770000      -1.67400000       1.93000000
C        0.27260000      -1.44000000       2.05390000
C       -0.47560000      -0.71420000       1.21910000
C       -0.00600000       0.02700000       0.01540000
H       -0.27250000       2.06390000       0.90140000
H       -0.31640000       2.04230000      -0.92210000
H        1.84700000       0.75100000      -0.94530000
H        3.00790000       1.47750000       1.12730000
H        1.59310000       1.11320000       2.10500000
H        3.60010000      -0.91970000       1.04100000
H        2.01750000      -2.70940000       1.72240000
H       -0.20860000      -1.94290000       2.89110000
H       -1.54760000      -0.66190000       1.40950000
H       -0.30380000      -0.43430000      -0.92480000
