19
Properties=species:S:1:pos:R:3 gdb_106736=T pbc="F F F"
O       -0.03480000       1.27070000      -0.50650000
C       -0.01110000      -0.03020000       0.07650000
C       -1.41830000      -0.54790000       0.12840000
C       -2.00920000      -1.15190000      -1.13440000
C       -1.71870000      -2.03750000       0.05570000
O       -0.68760000      -2.97940000       0.00150000
C       -2.86640000      -2.25570000       0.99100000
C       -3.26020000      -1.11350000       1.55630000
C       -2.40410000       0.06060000       1.12780000
H        0.85920000       1.62450000      -0.47470000
H        0.61340000      -0.72330000      -0.50530000
H        0.40440000       0.00740000       1.09650000
H       -3.04280000      -0.94830000      -1.39550000
H       -1.32550000      -1.22250000      -1.97540000
H       -0.87760000      -3.58980000      -0.71820000
H       -3.31070000      -3.23340000       1.13910000
H       -4.10700000      -1.00270000       2.22400000
H       -1.88160000       0.51180000       1.98260000
H       -3.00050000       0.86320000       0.67710000
