19
Properties=species:S:1:pos:R:3 gdb_52479=T pbc="F F F"
C       -0.02010000       1.46970000      -0.01040000
C       -0.00280000       0.01770000      -0.01010000
C        0.01090000      -1.19310000      -0.00970000
C        0.02690000      -2.55230000      -0.00970000
C        0.03120000      -3.76500000      -0.00270000
C        0.06790000      -5.19960000      -0.01730000
C        1.20550000      -5.81250000      -0.82320000
C       -0.39550000      -5.92720000       1.24030000
C       -1.26640000      -5.93710000       0.01850000
H        0.99680000       1.87880000      -0.01410000
H       -0.53950000       1.86300000      -0.89180000
H       -0.53050000       1.86030000       0.87750000
H        2.17690000      -5.49640000      -0.43090000
H        1.15810000      -6.90510000      -0.78050000
H        1.14890000      -5.50820000      -1.87280000
H        0.13980000      -6.83370000       1.50200000
H       -0.70350000      -5.32200000       2.08420000
H       -2.16920000      -5.33850000       0.02790000
H       -1.33230000      -6.85040000      -0.56320000
