20
Properties=species:S:1:pos:R:3 gdb_99682=T pbc="F F F"
O        0.11400000       1.43310000      -0.00900000
C        0.03720000       0.02880000       0.06500000
C       -1.41460000      -0.50170000      -0.02640000
C       -1.99830000      -0.07080000      -1.30090000
N       -2.41410000       0.28470000      -2.31990000
C       -1.49220000      -2.02520000       0.13330000
C       -1.14790000      -2.63750000       1.52150000
C       -2.30280000      -3.65330000       1.30930000
C       -2.88430000      -2.70910000       0.22200000
H       -0.17420000       1.70340000      -0.88870000
H        0.64780000      -0.46090000      -0.70870000
H        0.44410000      -0.25280000       1.04050000
H       -1.99260000      -0.02390000       0.77530000
H       -0.89060000      -2.49870000      -0.65030000
H       -0.13890000      -3.02810000       1.67120000
H       -1.37370000      -1.93600000       2.33190000
H       -1.94210000      -4.59210000       0.88040000
H       -2.93500000      -3.88500000       2.16870000
H       -3.63480000      -2.02920000       0.63800000
H       -3.28730000      -3.15430000      -0.68950000
