21
Properties=species:S:1:pos:R:3 gdb_63202=T pbc="F F F"
C       -0.13930000       1.56560000       0.00030000
C        0.02270000       0.03940000      -0.00620000
O       -1.27950000      -0.56850000       0.07050000
C        0.75520000      -0.43790000      -1.24970000
C        1.84490000      -1.19570000      -1.12670000
C        2.32290000      -1.53970000       0.26670000
C        1.08210000      -1.98010000       1.10580000
C        0.77390000      -0.46240000       1.24420000
C        2.30620000      -0.22700000       1.11170000
H        0.82660000       2.07800000       0.02280000
H       -0.66890000       1.89920000      -0.90020000
H       -0.72470000       1.87310000       0.87220000
H       -1.76050000      -0.33710000      -0.73130000
H        0.35400000      -0.14500000      -2.21800000
H        2.39000000      -1.56280000      -1.99140000
H        3.21890000      -2.16210000       0.27220000
H        0.33340000      -2.60580000       0.61920000
H        1.37500000      -2.41410000       2.06560000
H        0.26470000      -0.11510000       2.14640000
H        2.80590000      -0.35440000       2.07610000
H        2.66360000       0.68640000       0.63020000
