20
Properties=species:S:1:pos:R:3 gdb_77663=T pbc="F F F"
C       -0.10640000       1.49060000       0.04070000
N        0.13440000       0.05960000      -0.08990000
C        0.69360000      -0.55570000      -1.25870000
C       -0.04220000      -1.67090000      -1.94320000
C        1.81460000       0.28650000      -1.90840000
C        2.58150000       0.31500000      -0.55310000
C        1.45990000      -0.51200000       0.09020000
C        1.63900000      -1.59950000       1.06580000
O        2.71440000      -1.96490000       1.48140000
H        0.66170000       2.13480000      -0.40700000
H       -1.06600000       1.72440000      -0.43010000
H       -0.18100000       1.73550000       1.10400000
H       -0.70940000      -1.26460000      -2.71370000
H        0.65090000      -2.35980000      -2.43640000
H       -0.65390000      -2.22880000      -1.23080000
H        2.34980000      -0.27260000      -2.67850000
H        1.50410000       1.24660000      -2.33160000
H        3.51550000      -0.24710000      -0.58080000
H        2.77550000       1.29390000      -0.10620000
H        0.68770000      -2.07750000       1.38630000
