21
Properties=species:S:1:pos:R:3 gdb_119769=T pbc="F F F"
C        0.21810000       1.58770000      -0.22450000
C       -0.05320000       0.11120000       0.06590000
O        0.46040000      -0.69700000      -1.00200000
C        1.32430000      -1.70260000      -0.49110000
C        1.41930000      -1.44910000       0.99560000
C        2.29080000      -2.25670000       1.90690000
C        1.83540000      -3.71180000       2.05430000
O        2.75060000      -4.35230000       2.92790000
C        0.62620000      -0.42400000       1.29670000
H        1.29460000       1.77870000      -0.26150000
H       -0.21960000       1.86740000      -1.18700000
H       -0.22470000       2.22120000       0.55160000
H       -1.14590000      -0.03740000       0.12360000
H        0.91600000      -2.70140000      -0.72000000
H        2.30730000      -1.64130000      -0.98560000
H        3.32300000      -2.26920000       1.53220000
H        2.31890000      -1.80370000       2.90290000
H        0.80960000      -3.73460000       2.45420000
H        1.81470000      -4.20330000       1.06900000
H        2.47350000      -5.26650000       3.03790000
H        0.47560000       0.00160000       2.28180000
