18
Properties=species:S:1:pos:R:3 gdb_31730=T pbc="F F F"
C        0.09100000       1.37900000      -0.10530000
N       -0.14430000      -0.03490000       0.10340000
C        0.57990000      -0.66680000       1.10410000
C        1.24590000      -0.12760000       2.17380000
N        1.73300000      -1.23890000       2.88120000
C        1.34790000      -2.33390000       2.19100000
O        1.69570000      -3.54590000       2.64200000
C        1.23050000      -4.63660000       1.84700000
N        0.65340000      -2.05020000       1.11700000
H        1.15180000       1.63050000      -0.27340000
H       -0.49160000       1.72050000      -0.96400000
H       -0.24920000       1.94400000       0.77060000
H       -0.16230000      -0.58790000      -0.74170000
H        1.41320000       0.87920000       2.51000000
H        2.27530000      -1.23620000       3.72670000
H        0.13790000      -4.63810000       1.79150000
H        1.63160000      -4.57530000       0.83100000
H        1.58820000      -5.53930000       2.34360000
