13
Properties=species:S:1:pos:R:3 gdb_152=T pbc="F F F"
C       -0.25330000       1.21350000       0.11580000
O        0.51040000       0.05420000      -0.14550000
C        0.95220000      -0.57470000       1.01490000
C        0.03270000      -1.53450000       1.72890000
C        1.21120000      -2.04140000       0.91780000
H        0.33050000       1.96930000       0.66350000
H       -0.54950000       1.62940000      -0.85020000
H       -1.15500000       0.98390000       0.70190000
H        1.62440000       0.03160000       1.62500000
H        0.07430000      -1.59620000       2.81080000
H       -0.95310000      -1.67660000       1.30030000
H        0.98880000      -2.50550000      -0.03610000
H        2.06940000      -2.45220000       1.43720000
