18
Properties=species:S:1:pos:R:3 gdb_47507=T pbc="F F F"
O       -0.00670000      -0.03140000      -0.08990000
C       -0.00800000       1.18220000      -0.01140000
C       -1.31440000       1.96750000       0.12650000
O       -1.17520000       3.32750000       0.49010000
C       -0.17320000       3.97030000      -0.27510000
C        1.17750000       3.36920000       0.03580000
C        2.43440000       4.08410000      -0.36480000
C        2.05470000       3.98400000       1.09960000
N        1.12650000       1.93600000      -0.09450000
H       -1.85090000       1.86480000      -0.83160000
H       -1.91640000       1.48210000       0.89730000
H       -0.38930000       3.87640000      -1.35280000
H       -0.19450000       5.02940000      -0.00750000
H        3.26600000       3.48230000      -0.71810000
H        2.34360000       5.04350000      -0.86390000
H        1.70280000       4.87610000       1.60650000
H        2.62990000       3.30950000       1.72430000
H        1.98550000       1.40990000      -0.17680000
