21
Properties=species:S:1:pos:R:3 gdb_87130=T pbc="F F F"
C       -0.01180000       1.56760000       0.06670000
C       -0.06130000       0.05240000       0.00700000
C        1.02160000      -0.64080000      -0.80880000
C        1.05370000      -0.69520000       0.69860000
O        1.98810000       0.05910000       1.41830000
C       -1.43350000      -0.59350000      -0.00780000
O       -1.40870000      -2.00380000       0.02600000
C       -2.63790000       0.05110000       0.63500000
C       -2.53510000      -0.05710000      -0.87510000
H        1.02360000       1.90760000       0.10750000
H       -0.48610000       2.01900000      -0.81080000
H       -0.51040000       1.95270000       0.96200000
H        0.76050000      -1.55020000      -1.33740000
H        1.74940000      -0.00310000      -1.29990000
H        0.81170000      -1.65520000       1.15230000
H        2.85640000      -0.32750000       1.26480000
H       -1.30870000      -2.27220000       0.94550000
H       -3.33420000      -0.61440000       1.13370000
H       -2.54280000       1.02970000       1.08960000
H       -2.36430000       0.84860000      -1.44490000
H       -3.15430000      -0.79770000      -1.36710000
