17
Properties=species:S:1:pos:R:3 gdb_65292=T pbc="F F F"
C       -0.04660000       1.53320000      -0.00800000
C       -0.06050000       0.02250000       0.07220000
O        1.22370000      -0.62290000      -0.15940000
C        0.67770000      -0.68800000       1.13260000
C        1.33650000      -0.18800000       2.41540000
O        0.89180000      -1.37480000       3.10700000
C        0.35160000      -1.96260000       1.89950000
C       -1.19260000      -0.63740000      -0.53350000
C       -2.15570000      -1.16630000      -1.02120000
H        0.84080000       1.93150000       0.48900000
H       -0.03580000       1.85630000      -1.05280000
H       -0.93980000       1.94910000       0.46780000
H        2.43050000      -0.11950000       2.35710000
H        0.93380000       0.72990000       2.86020000
H       -0.70920000      -2.22020000       1.99440000
H        0.91930000      -2.84180000       1.57050000
H       -2.99960000      -1.63950000      -1.46000000
