15
Properties=species:S:1:pos:R:3 gdb_77650=T pbc="F F F"
O        0.00260000       1.36000000       0.02880000
C       -0.08880000      -0.02010000       0.03910000
C       -1.37800000      -0.78870000       0.06830000
O       -1.71450000      -1.76830000       0.96060000
C       -2.43260000      -0.10420000      -0.79270000
N       -1.44580000       0.08310000      -1.91310000
C       -0.46330000      -0.78240000      -1.21850000
C        0.32960000      -1.75970000      -1.87030000
N        0.96280000      -2.57540000      -2.39670000
H       -0.38150000       1.64280000      -0.81690000
H        0.71140000      -0.48670000       0.61080000
H       -1.17740000      -1.67910000       1.75530000
H       -3.23540000      -0.79940000      -1.05150000
H       -2.85460000       0.82940000      -0.40820000
H       -1.76960000      -0.33580000      -2.77790000
