21
Properties=species:S:1:pos:R:3 gdb_101434=T pbc="F F F"
C       -0.28730000       1.52660000      -0.13510000
C        0.04540000       0.04100000      -0.10500000
C        1.39090000      -0.40480000      -0.72310000
O        1.84270000      -0.95980000       0.53120000
C        0.61400000      -0.58930000       1.19700000
C        0.87040000       0.29840000       2.40580000
O       -0.39400000       0.62800000       2.95800000
C        1.73170000      -0.41010000       3.44640000
O        1.79670000       0.47440000       4.56490000
H        0.57510000       2.14030000       0.14410000
H       -0.59340000       1.82900000      -1.14230000
H       -1.10020000       1.75760000       0.55820000
H       -0.80260000      -0.53290000      -0.48690000
H        1.33490000      -1.16740000      -1.50940000
H        2.04250000       0.41010000      -1.06550000
H        0.05930000      -1.47650000       1.53340000
H        1.40760000       1.20770000       2.09250000
H       -0.20720000       0.95850000       3.84610000
H        1.25590000      -1.36200000       3.72590000
H        2.72570000      -0.61960000       3.03150000
H        2.16280000      -0.00360000       5.31380000
