19
Properties=species:S:1:pos:R:3 gdb_67847=T pbc="F F F"
C        0.01940000       1.53810000      -0.02850000
C       -0.03480000       0.03080000       0.04880000
C       -1.31900000      -0.68370000      -0.22800000
C       -1.47100000      -1.76000000       0.54460000
C       -0.30760000      -1.94390000       1.49580000
C        0.63030000      -0.79530000       1.13160000
C        1.23800000      -0.77670000      -0.26870000
C        1.25570000      -1.93320000      -1.11170000
C        1.29800000      -2.91070000      -1.81250000
H        1.00120000       1.91690000       0.27240000
H       -0.17360000       1.89000000      -1.04840000
H       -0.73130000       1.99130000       0.62870000
H       -2.00930000      -0.35170000      -0.99550000
H       -2.29570000      -2.46140000       0.49060000
H       -0.62380000      -1.88300000       2.54520000
H        0.16870000      -2.92450000       1.36660000
H        1.21430000      -0.32250000       1.91330000
H        2.13170000      -0.16120000      -0.34600000
H        1.32900000      -3.76570000      -2.44090000
