16
Properties=species:S:1:pos:R:3 gdb_35606=T pbc="F F F"
N       -0.02540000      -1.24420000       0.03360000
C       -0.05360000      -0.08840000       0.03110000
C       -0.05180000       1.38230000       0.01690000
C       -0.48210000       2.01140000       1.41210000
N        0.77780000       2.27480000       2.14930000
C        1.66450000       2.22690000       1.24510000
C        3.14240000       2.01360000       0.98450000
C        2.64130000       1.32420000      -0.33410000
N        1.30260000       1.94210000      -0.07480000
H       -0.69600000       1.72220000      -0.79780000
H       -1.02560000       2.94610000       1.23280000
H       -1.12830000       1.34100000       1.98130000
H        3.71120000       2.92910000       0.81530000
H        3.65740000       1.38190000       1.70750000
H        3.09330000       1.64110000      -1.27510000
H        2.63190000       0.23200000      -0.26290000
