13
Properties=species:S:1:pos:R:3 gdb_5417=T pbc="F F F"
O        0.24090000       0.94290000       0.93360000
C       -0.10720000       0.21570000      -0.21560000
C       -1.47220000      -0.40930000      -0.06290000
N       -2.16530000      -0.22720000       1.05940000
C       -3.35580000      -0.82830000       1.07560000
N       -3.88160000      -1.56450000       0.09800000
C       -3.09120000      -1.67260000      -0.97360000
N       -1.88940000      -1.12640000      -1.11660000
H        1.11340000       1.32010000       0.78920000
H       -0.14010000       0.84090000      -1.12310000
H        0.59820000      -0.60320000      -0.43280000
H       -3.95420000      -0.70390000       1.97590000
H       -3.46800000      -2.26330000      -1.80620000
