16
Properties=species:S:1:pos:R:3 gdb_78120=T pbc="F F F"
C       -0.00600000       1.51460000       0.17840000
C        0.04740000       0.02970000      -0.08540000
C        0.66370000      -0.65920000      -1.23410000
C        1.95220000      -0.00730000      -1.75180000
C        1.91650000       1.24770000      -2.48290000
N        1.90370000       2.25820000      -3.04490000
C        2.39920000      -0.04110000      -0.26450000
N        3.37840000       0.32470000       0.42320000
N        1.26230000      -0.81260000       0.17270000
H        0.83950000       2.06350000      -0.23800000
H       -0.92140000       1.92900000      -0.25520000
H       -0.02830000       1.69540000       1.25740000
H       -0.81940000      -0.50390000       0.29910000
H        0.20220000      -1.50570000      -1.72860000
H        2.54740000      -0.73540000      -2.31240000
H        4.06270000       0.83740000      -0.13430000
