18
Properties=species:S:1:pos:R:3 gdb_29710=T pbc="F F F"
C       -0.03670000       1.45110000       0.00960000
N        0.03610000       0.00650000      -0.00270000
C        0.12720000      -0.78570000      -1.11440000
O        0.17030000      -0.15410000      -2.31970000
C        0.15290000      -2.10470000      -0.74220000
C        0.06390000      -2.13770000       0.69360000
C        0.04000000      -3.34650000       1.57650000
C        0.00200000      -0.83460000       1.10740000
O       -0.15050000      -0.29350000       2.35500000
H        0.89800000       1.90250000      -0.34050000
H       -0.84940000       1.80370000      -0.63200000
H       -0.22680000       1.76730000       1.03550000
H        0.17990000      -0.82680000      -3.00690000
H        0.21980000      -2.95530000      -1.40390000
H        0.97810000      -3.91410000       1.52960000
H       -0.12300000      -3.05600000       2.61840000
H       -0.76410000      -4.03730000       1.29650000
H        0.70360000      -0.27090000       2.80100000
