21
Properties=species:S:1:pos:R:3 gdb_82873=T pbc="F F F"
C       -0.21550000       1.61610000      -0.05060000
C        0.04000000       0.11680000       0.00660000
C        1.10630000      -0.59620000      -0.88740000
C        2.41530000       0.12100000      -0.51060000
C        2.38240000      -0.33140000       0.96730000
C        2.54630000      -1.87060000       0.80440000
C        1.14330000      -1.75700000       0.19730000
O        0.30340000      -2.82450000      -0.09180000
C        0.81470000      -0.55370000       1.15310000
H        0.68320000       2.20740000       0.14520000
H       -0.60600000       1.91340000      -1.03080000
H       -0.96070000       1.90330000       0.69980000
H       -0.90780000      -0.42090000      -0.10710000
H        0.90970000      -0.82340000      -1.93500000
H        3.29280000      -0.26560000      -1.03690000
H        2.37600000       1.20130000      -0.66400000
H        2.96780000       0.21940000       1.70090000
H        3.38430000      -2.24550000       0.20710000
H        2.50850000      -2.39600000       1.76550000
H        0.22640000      -3.37090000       0.69760000
H        0.43960000      -0.67320000       2.17050000
