25
Properties=species:S:1:pos:R:3 gdb_116292=T pbc="F F F"
C        0.04700000       1.69020000       0.04740000
C        0.03870000       0.15790000       0.06000000
C        0.66970000      -0.46640000      -1.19500000
C        2.20450000      -0.21130000      -1.27940000
C        2.82980000      -1.62000000      -1.14780000
O        1.80930000      -2.45240000      -0.62600000
C        0.60290000      -2.01860000      -1.24810000
C       -0.57790000      -2.71980000      -0.59040000
C       -0.55210000      -4.23700000      -0.80220000
H        1.06230000       2.09520000      -0.01460000
H       -0.51400000       2.07810000      -0.81070000
H       -0.41340000       2.09320000       0.95490000
H        0.56670000      -0.21120000       0.94850000
H       -0.99900000      -0.18160000       0.15450000
H        0.16100000      -0.05490000      -2.07460000
H        2.49900000       0.27230000      -2.21410000
H        2.53330000       0.43710000      -0.46290000
H        3.15870000      -1.99240000      -2.13190000
H        3.68330000      -1.66170000      -0.46600000
H        0.63160000      -2.31570000      -2.31440000
H       -0.57550000      -2.49640000       0.48160000
H       -1.50430000      -2.30010000      -1.00220000
H       -0.59570000      -4.48810000      -1.86800000
H        0.36740000      -4.66550000      -0.39550000
H       -1.40320000      -4.71840000      -0.31090000
