23
Properties=species:S:1:pos:R:3 gdb_107875=T pbc="F F F"
C        0.74310000      -1.19830000      -1.82740000
C        0.12060000      -0.53190000      -0.59360000
C       -1.31990000      -0.93270000      -0.37270000
C       -2.48410000      -0.65420000      -1.35560000
C       -3.15160000      -1.37870000      -0.18130000
C       -1.93170000      -2.33570000       0.03900000
C       -1.91620000      -2.03110000       1.55580000
C       -0.67630000      -2.23940000       2.41360000
C       -2.24380000      -0.67550000       0.88350000
H        1.77610000      -0.86820000      -1.97390000
H        0.75070000      -2.28870000      -1.72520000
H        0.18290000      -0.95440000      -2.73590000
H        0.72700000      -0.75960000       0.28880000
H        0.15770000       0.55980000      -0.71210000
H       -2.75320000       0.39750000      -1.50690000
H       -2.46190000      -1.18430000      -2.31400000
H       -4.19820000      -1.65140000      -0.03590000
H       -1.76820000      -3.28570000      -0.47560000
H       -2.78850000      -2.45640000       2.07160000
H        0.23320000      -1.85130000       1.95010000
H       -0.79020000      -1.74450000       3.38500000
H       -0.51780000      -3.30630000       2.60910000
H       -2.43800000       0.29570000       1.34580000
