20
Properties=species:S:1:pos:R:3 gdb_113271=T pbc="F F F"
C        0.36740000       1.19300000       0.26920000
O       -0.36180000       0.16120000      -0.36770000
C        0.37060000      -0.49360000      -1.34950000
C        1.35330000      -1.57590000      -0.97100000
C        0.02880000      -1.93440000      -1.61670000
C       -1.03460000      -2.63180000      -0.79270000
N        0.08220000      -2.31990000      -3.00540000
C        0.66150000      -3.47340000      -3.44410000
O        1.26910000      -4.26110000      -2.75290000
H        1.27480000       0.80740000       0.75450000
H        0.66230000       1.97770000      -0.44360000
H       -0.28890000       1.62970000       1.02510000
H        0.62210000       0.12470000      -2.21420000
H        2.25730000      -1.69370000      -1.55500000
H        1.44900000      -1.81440000       0.08240000
H       -1.06760000      -2.22440000       0.21910000
H       -2.02410000      -2.49500000      -1.24240000
H       -0.82030000      -3.70300000      -0.74330000
H       -0.48920000      -1.80780000      -3.66110000
H        0.52560000      -3.60460000      -4.53770000
