20
Properties=species:S:1:pos:R:3 gdb_86016=T pbc="F F F"
C       -0.02580000       1.64400000       0.00320000
C        0.02130000       0.11270000       0.03880000
C        0.75690000      -0.51760000      -1.17040000
C        1.50060000      -1.78110000      -0.62680000
C        2.88430000      -1.99170000      -1.27330000
C        1.56980000      -1.48000000       0.86840000
C        0.78140000      -0.46640000       1.21150000
C        0.68730000      -2.99280000      -0.83940000
N        0.05250000      -3.94540000      -1.00480000
H        0.98470000       2.06700000      -0.01430000
H       -0.55660000       1.99930000      -0.88600000
H       -0.54320000       2.04430000       0.88120000
H       -1.01400000      -0.25730000       0.07740000
H        0.09530000      -0.75100000      -2.00710000
H        1.51720000       0.18280000      -1.53310000
H        3.51110000      -1.11580000      -1.08330000
H        3.38280000      -2.87270000      -0.85950000
H        2.79290000      -2.13020000      -2.35450000
H        2.17660000      -2.08120000       1.53550000
H        0.65510000      -0.09440000       2.22310000
