25
Properties=species:S:1:pos:R:3 gdb_104071=T pbc="F F F"
C       -0.04510000       1.52120000       0.18120000
C        0.00250000       0.00340000      -0.02830000
C        0.73550000      -0.47750000      -1.29550000
C        0.06500000       0.06660000      -2.56980000
C        2.25140000      -0.09300000      -1.30640000
C        2.93290000      -1.31480000      -1.86560000
C        2.13030000      -2.38010000      -1.90510000
C        2.47540000      -3.76390000      -2.35710000
C        0.75710000      -2.03620000      -1.37160000
H        0.95980000       1.95610000       0.20660000
H       -0.60600000       2.02700000      -0.61040000
H       -0.53180000       1.76330000       1.13130000
H        0.48580000      -0.45930000       0.84240000
H       -1.02380000      -0.38840000      -0.04620000
H        0.11700000       1.15840000      -2.62330000
H        0.56100000      -0.33130000      -3.46140000
H       -0.99100000      -0.22390000      -2.61390000
H        2.44210000       0.81070000      -1.89850000
H        2.61790000       0.12660000      -0.29250000
H        3.97610000      -1.31720000      -2.16620000
H        3.51430000      -3.83330000      -2.69180000
H        2.32970000      -4.49340000      -1.54960000
H        1.82840000      -4.08590000      -3.18340000
H        0.60910000      -2.49130000      -0.38060000
H       -0.05110000      -2.42590000      -2.00490000
