20
Properties=species:S:1:pos:R:3 gdb_120055=T pbc="F F F"
C       -0.32910000       1.42600000      -0.57300000
O       -0.25790000       0.02670000      -0.70110000
C        0.98750000      -0.50130000      -0.29360000
C        0.94160000      -2.00400000      -0.49840000
C        1.03940000      -2.62900000      -1.87910000
C        2.47840000      -2.88090000      -2.20240000
C        3.33950000      -2.42350000      -1.04030000
C        2.15390000      -2.90770000      -0.18190000
N        1.72010000      -3.86200000      -1.34790000
H       -0.19080000       1.74880000       0.47140000
H        0.43000000       1.93340000      -1.18980000
H       -1.32140000       1.73630000      -0.90950000
H        1.80280000      -0.04280000      -0.87610000
H        1.17720000      -0.26830000       0.77000000
H        0.05660000      -2.40380000       0.00730000
H        0.26280000      -2.70150000      -2.63160000
H        2.79750000      -3.14590000      -3.20430000
H        4.19870000      -3.08790000      -0.91710000
H        3.66890000      -1.38180000      -0.97100000
H        2.30610000      -3.31460000       0.81610000
