17
Properties=species:S:1:pos:R:3 gdb_30177=T pbc="F F F"
C       -0.48510000       1.43950000       0.02710000
C        0.15920000       0.06800000       0.03640000
C        1.00230000      -0.27570000      -1.25330000
C        2.29040000      -0.73180000      -0.63070000
C        2.18970000      -0.51810000       0.69610000
O        3.28320000      -0.82600000       1.39210000
C        4.18080000      -1.27780000       0.42620000
C        3.62200000      -1.23370000      -0.81610000
O        1.06270000      -0.00870000       1.20770000
H        0.27150000       2.21710000      -0.11540000
H       -1.20780000       1.50580000      -0.79270000
H       -1.00950000       1.63200000       0.96690000
H       -0.59320000      -0.70930000       0.20490000
H        0.48770000      -1.03440000      -1.85240000
H        1.11700000       0.61260000      -1.88880000
H        5.13700000      -1.58860000       0.80830000
H        4.11110000      -1.53180000      -1.73080000
