18
Properties=species:S:1:pos:R:3 gdb_89660=T pbc="F F F"
C       -0.13220000       1.59580000       0.03940000
C        0.07780000       0.08700000       0.03110000
C        1.15790000      -0.54620000      -0.91460000
C        1.78620000      -1.28290000       0.27820000
C        2.21220000      -0.25740000       1.32140000
C        0.76490000      -0.57070000       1.23420000
O        0.12800000      -1.03110000       2.35620000
C        2.25270000      -2.62390000       0.28010000
N        2.60210000      -3.72890000       0.27590000
H        0.81030000       2.13130000       0.19200000
H       -0.55820000       1.93610000      -0.91000000
H       -0.81850000       1.89030000       0.84000000
H       -0.87950000      -0.41820000      -0.14580000
H        0.73660000      -1.21350000      -1.66710000
H        1.82580000       0.16880000      -1.40520000
H        2.69300000      -0.68160000       2.19610000
H        2.62360000       0.69270000       0.98840000
H       -0.62580000      -1.56990000       2.08830000
