15
Properties=species:S:1:pos:R:3 gdb_55496=T pbc="F F F"
N       -0.16360000       1.35130000      -0.28840000
C        0.10720000       0.03330000      -0.05730000
O        1.21690000      -0.44050000      -0.14290000
C       -1.13270000      -0.77600000       0.38100000
C       -0.94310000      -2.21300000       0.28590000
C       -0.79640000      -3.40190000       0.20440000
C       -0.59040000      -4.84360000       0.10010000
C       -1.75420000      -5.55360000      -0.44810000
N       -2.66360000      -6.12160000      -0.87630000
H        0.59100000       1.93810000      -0.60470000
H       -1.10060000       1.71160000      -0.33080000
H       -1.35800000      -0.49020000       1.41750000
H       -2.00400000      -0.47080000      -0.21240000
H        0.27560000      -5.05880000      -0.53910000
H       -0.35910000      -5.27390000       1.08300000
