16
Properties=species:S:1:pos:R:3 gdb_127874=T pbc="F F F"
C        0.09120000       1.42230000       0.15460000
N       -0.01950000      -0.01950000       0.17080000
C       -1.13850000      -0.61650000      -0.01560000
C       -2.45800000      -0.04690000      -0.26730000
N       -3.52950000      -0.73480000      -0.44290000
O       -3.44410000      -2.10270000      -0.39340000
N       -2.24540000      -2.77310000      -0.16090000
C       -1.17070000      -2.08500000       0.01530000
C        0.09040000      -2.85430000       0.26160000
H        0.82170000       1.70710000      -0.61190000
H       -0.83250000       1.98600000      -0.02780000
H        0.50750000       1.75070000       1.11440000
H       -2.61700000       1.02420000      -0.32260000
H       -0.11610000      -3.92490000       0.25130000
H        0.83450000      -2.60660000      -0.50130000
H        0.52420000      -2.56330000       1.22290000
