16
Properties=species:S:1:pos:R:3 gdb_19093=T pbc="F F F"
C       -0.00590000       1.49640000       0.04840000
C        1.52350000       1.47330000      -0.06210000
C        1.34910000       0.05330000      -0.66660000
C        2.00570000      -0.53830000       0.57520000
C        0.61700000      -0.57900000       1.26980000
C        1.17190000       0.50510000       2.20200000
N        2.20680000       0.85980000       1.16900000
N       -0.02950000      -0.00720000      -0.00060000
H       -0.50140000       1.96740000       0.90180000
H       -0.46150000       1.87840000      -0.87180000
H        2.08470000       2.30990000      -0.48490000
H        1.44240000      -0.24400000      -1.71120000
H        2.81400000      -1.26540000       0.65520000
H        0.09260000      -1.45730000       1.65330000
H        0.53590000       1.31950000       2.55920000
H        1.68280000       0.06020000       3.06300000
