16
Properties=species:S:1:pos:R:3 gdb_8562=T pbc="F F F"
N       -0.02680000       1.20210000      -0.50460000
C        0.00200000       0.03640000      -0.01970000
C       -1.28440000      -0.76680000       0.20740000
N       -1.06220000      -2.10260000       0.77870000
C       -0.08080000      -1.93580000       1.91770000
C        1.04570000      -1.90970000       0.87160000
C        0.07610000      -2.72840000       0.00350000
O        1.17280000      -0.58370000       0.33300000
H        0.91920000       1.58150000      -0.58420000
H       -1.93950000      -0.19350000       0.87030000
H       -1.80670000      -0.86400000      -0.74910000
H       -0.22000000      -1.04690000       2.53850000
H       -0.07470000      -2.83320000       2.54180000
H        2.05920000      -2.24790000       1.09470000
H        0.11730000      -3.80290000       0.19980000
H        0.07610000      -2.54250000      -1.07380000
