14
Properties=species:S:1:pos:R:3 gdb_8643=T pbc="F F F"
C       -0.08050000       1.40140000      -0.05000000
O        0.04870000      -0.01700000      -0.00300000
C        0.71420000      -0.54810000       1.12240000
C        2.20280000      -0.14220000       1.21190000
C        0.02070000      -0.16180000       2.38330000
N       -0.50620000       0.19290000       3.34770000
C        0.62360000      -2.01880000       0.97490000
N        0.59810000      -3.16710000       0.86580000
H        0.88720000       1.89830000      -0.18540000
H       -0.70910000       1.60660000      -0.91730000
H       -0.56960000       1.79140000       0.85080000
H        2.29190000       0.92920000       1.39840000
H        2.69050000      -0.67870000       2.02820000
H        2.69040000      -0.39590000       0.26840000
