18
Properties=species:S:1:pos:R:3 gdb_7149=T pbc="F F F"
C       -0.12830000       1.41770000       0.01140000
O        0.00870000       0.01590000       0.00180000
C       -1.21660000      -0.64800000       0.01040000
C       -1.00410000      -2.16060000      -0.00010000
O        0.09520000      -2.65740000      -0.01330000
C       -2.27930000      -2.98800000       0.00740000
C       -2.01440000      -4.48640000      -0.00260000
O       -3.27830000      -5.13390000       0.00570000
H        0.87890000       1.84020000       0.00370000
H       -0.67490000       1.78220000      -0.87300000
H       -0.65690000       1.77180000       0.91080000
H       -1.82040000      -0.38880000       0.90060000
H       -1.83820000      -0.37900000      -0.86450000
H       -2.87950000      -2.72240000       0.88770000
H       -2.89530000      -2.71360000      -0.85910000
H       -1.42600000      -4.75000000      -0.89260000
H       -1.40990000      -4.75900000       0.87390000
H       -3.12580000      -6.08320000      -0.00060000
