18
Properties=species:S:1:pos:R:3 gdb_24585=T pbc="F F F"
C       -0.05240000       1.55240000       0.01300000
C        1.49750000       1.52540000      -0.03140000
C        1.45580000       0.07540000       0.54830000
C       -0.03670000       0.00370000       0.09270000
C        2.40570000      -0.92650000       0.00930000
N        2.62180000      -1.24640000      -1.23030000
C        3.60060000      -2.22870000      -1.17780000
C        3.93110000      -2.45560000       0.11400000
O        3.17170000      -1.62620000       0.89090000
H       -0.42510000       2.00370000       0.93710000
H       -0.57330000       2.00880000      -0.83110000
H        1.87440000       1.50910000      -1.05670000
H        2.04750000       2.27480000       0.54230000
H        1.53500000       0.08450000       1.63780000
H       -0.73980000      -0.48960000       0.76760000
H       -0.10540000      -0.45460000      -0.89660000
H        3.98980000      -2.69440000      -2.06920000
H        4.61780000      -3.10550000       0.62780000
