17
Properties=species:S:1:pos:R:3 gdb_46440=T pbc="F F F"
O        0.02350000       0.00130000       0.04790000
C       -0.00380000       1.20390000      -0.02520000
C       -1.26960000       2.06900000      -0.13830000
C       -0.82120000       3.36430000      -0.84150000
C        0.69720000       3.46820000      -0.60580000
C        1.14920000       3.31940000       0.82130000
C        1.18800000       2.10540000      -0.08790000
C        1.47870000       4.24430000      -1.52080000
C        2.10980000       4.90560000      -2.30280000
H       -2.04500000       1.52150000      -0.67660000
H       -1.65670000       2.25660000       0.87020000
H       -1.00000000       3.29280000      -1.91800000
H       -1.34260000       4.25580000      -0.48140000
H        2.11210000       3.74400000       1.07780000
H        0.40930000       3.36400000       1.61390000
H        2.14590000       1.68690000      -0.36730000
H        2.67360000       5.48610000      -2.99020000
