18
Properties=species:S:1:pos:R:3 gdb_75095=T pbc="F F F"
C       -0.01380000       1.56920000       0.01360000
C        0.02410000       0.06770000       0.00390000
C        0.06710000      -0.62520000      -1.13750000
N        0.03680000      -2.02090000      -1.25870000
C       -0.70420000      -2.97580000      -0.57550000
O       -0.74450000      -4.12030000      -0.99740000
C       -1.45970000      -2.57190000       0.63200000
C       -1.16400000      -1.58310000       1.47980000
C        0.01800000      -0.65610000       1.33870000
H        0.81430000       1.98180000       0.60450000
H        0.05020000       1.98270000      -0.99670000
H       -0.93950000       1.94430000       0.46950000
H        0.13930000      -0.11020000      -2.09140000
H        0.41450000      -2.40980000      -2.11220000
H       -2.29180000      -3.23760000       0.83650000
H       -1.80660000      -1.44100000       2.34580000
H        0.94560000      -1.23950000       1.43510000
H        0.02190000       0.07000000       2.15540000
