22
Properties=species:S:1:pos:R:3 gdb_79343=T pbc="F F F"
C       -0.16940000       1.50230000       0.05500000
C        0.04500000      -0.00330000      -0.02310000
C        0.99740000      -0.54850000      -1.11630000
C        2.36970000      -0.07640000      -0.58870000
C        2.17610000      -0.58550000       0.83430000
N        0.72790000      -0.53410000       1.18850000
C        1.34120000      -1.82180000       0.76600000
C        1.39150000      -2.95370000       1.75210000
C        1.01610000      -2.03810000      -0.71450000
H        0.77010000       2.04770000       0.17770000
H       -0.66280000       1.86950000      -0.85110000
H       -0.80390000       1.74470000       0.91240000
H       -0.93340000      -0.49400000      -0.09820000
H        0.75580000      -0.31560000      -2.15270000
H        3.20500000      -0.57060000      -1.09580000
H        2.52260000       1.00380000      -0.65310000
H        2.88200000      -0.39070000       1.63320000
H        1.61160000      -2.58310000       2.75660000
H        0.43280000      -3.48350000       1.79220000
H        2.16420000      -3.68010000       1.47560000
H        0.05200000      -2.53540000      -0.86700000
H        1.78990000      -2.61700000      -1.23010000
