19
Properties=species:S:1:pos:R:3 gdb_82759=T pbc="F F F"
O       -0.24950000       1.39120000       0.03800000
C       -0.08890000      -0.02020000       0.07410000
C        0.36540000      -0.63900000       1.41270000
C       -0.63840000      -0.01170000       2.41690000
C       -1.65840000      -0.87970000       1.66500000
C       -0.55570000      -1.94250000       1.37700000
C       -1.12450000      -2.16210000      -0.03860000
C       -1.48800000      -0.66970000       0.08270000
O       -2.44360000      -0.09390000      -0.73500000
H        0.60790000       1.80230000      -0.10280000
H        0.51020000      -0.35250000      -0.78330000
H        1.43570000      -0.69050000       1.61700000
H       -0.48080000      -0.37790000       3.43570000
H       -0.74340000       1.07470000       2.41660000
H       -2.65760000      -1.12870000       2.02020000
H       -0.31090000      -2.75140000       2.06200000
H       -0.47650000      -2.47030000      -0.86570000
H       -2.00750000      -2.80600000       0.00250000
H       -2.22510000       0.84660000      -0.78600000
