20
Properties=species:S:1:pos:R:3 gdb_70257=T pbc="F F F"
C       -0.66710000       1.51210000       0.31640000
C       -0.07820000       0.13840000       0.10010000
C       -0.81770000      -1.08550000       0.59150000
C        0.49960000      -0.69850000       1.22490000
C        1.75540000      -1.39620000       0.73270000
C        1.63150000      -1.35100000      -0.81960000
C        0.81590000      -0.06070000      -1.11910000
C        2.91760000      -1.39810000      -1.50580000
N        3.93980000      -1.42660000      -2.04510000
H        0.11590000       2.27880000       0.35090000
H       -1.35840000       1.78090000      -0.49090000
H       -1.22490000       1.56030000       1.25680000
H       -1.71230000      -0.90840000       1.17910000
H       -0.87800000      -1.97650000      -0.02640000
H        0.48950000      -0.33420000       2.24660000
H        2.64190000      -0.83830000       1.05190000
H        1.86720000      -2.42360000       1.09260000
H        1.05880000      -2.22110000      -1.15620000
H        0.26490000      -0.14480000      -2.06130000
H        1.49490000       0.79430000      -1.21370000
