21
Properties=species:S:1:pos:R:3 gdb_74519=T pbc="F F F"
C       -0.00100000       1.54180000       0.11640000
C        0.04870000       0.04930000       0.03380000
C       -0.02420000      -0.70640000      -1.06490000
C        0.00080000      -2.18010000      -0.77710000
C       -1.24700000      -2.99750000      -1.23150000
O       -0.45970000      -3.81970000      -2.11110000
C        0.74810000      -3.12000000      -1.75970000
C        0.41130000      -2.23090000       0.71440000
C        0.15050000      -0.81270000       1.27580000
H        0.90300000       1.94180000       0.59330000
H       -0.09700000       2.00030000      -0.87140000
H       -0.84730000       1.87530000       0.73090000
H       -0.13890000      -0.32280000      -2.07460000
H       -1.73620000      -3.58470000      -0.44250000
H       -2.01010000      -2.42590000      -1.77570000
H        1.20770000      -2.62800000      -2.62740000
H        1.48910000      -3.78430000      -1.29440000
H       -0.11340000      -3.01550000       1.26680000
H        1.48110000      -2.45810000       0.77740000
H        0.94320000      -0.47700000       1.95540000
H       -0.78360000      -0.75980000       1.85300000
