16
Properties=species:S:1:pos:R:3 gdb_12494=T pbc="F F F"
O       -0.06070000       1.03290000       1.60970000
C       -0.00120000       1.45380000       0.48550000
C       -1.29570000       1.59060000      -0.33240000
O       -1.18080000       1.70190000      -1.72750000
C       -0.89360000       3.00940000      -2.18980000
C        0.43260000       3.54600000      -1.62270000
C        1.40300000       2.40850000      -1.31390000
O        1.19700000       1.80390000      -0.02420000
H       -1.86390000       0.68100000      -0.12410000
H       -1.86240000       2.43040000       0.10080000
H       -0.83260000       2.91470000      -3.27780000
H       -1.72430000       3.69300000      -1.95680000
H        0.88920000       4.22860000      -2.34760000
H        0.27720000       4.12650000      -0.70650000
H        1.36510000       1.63480000      -2.08730000
H        2.42600000       2.78610000      -1.25320000
