19
Properties=species:S:1:pos:R:3 gdb_68661=T pbc="F F F"
C        0.01590000       1.58230000       0.02640000
C        0.02700000       0.06970000      -0.03710000
C        0.72170000      -0.70120000      -1.21240000
C       -0.35140000      -1.82690000      -1.03820000
C        0.05280000      -2.77450000       0.11430000
C        0.48450000      -1.95830000       1.31040000
C        0.45010000      -0.62610000       1.25560000
C       -1.23800000      -0.69800000      -0.48140000
O       -2.40480000      -0.43650000      -0.52530000
H        1.00950000       1.97710000       0.26560000
H       -0.30300000       2.01370000      -0.92690000
H       -0.67970000       1.92960000       0.79760000
H        0.61360000      -0.17900000      -2.16660000
H        1.76280000      -0.98610000      -1.04690000
H       -0.70720000      -2.36620000      -1.91760000
H       -0.80060000      -3.41270000       0.38050000
H        0.85190000      -3.45630000      -0.20860000
H        0.80180000      -2.48070000       2.20800000
H        0.70730000      -0.00420000       2.10830000
