12
Properties=species:S:1:pos:R:3 gdb_132657=T pbc="F F F"
N       -0.00120000       1.33800000       0.12910000
C       -0.00020000      -0.02160000       0.04760000
N       -1.19000000      -0.63870000       0.03040000
C       -1.15640000      -1.97150000      -0.00070000
C        0.02680000      -2.68570000      -0.01880000
F        0.05560000      -4.01790000      -0.05140000
C        1.19880000      -1.93000000      -0.01020000
F        2.36560000      -2.54930000      -0.03920000
N        1.20550000      -0.62420000       0.02110000
H        0.85730000       1.81640000      -0.08280000
H       -0.86950000       1.80620000      -0.06570000
H       -2.10560000      -2.50140000      -0.01500000
