15
Properties=species:S:1:pos:R:3 gdb_25080=T pbc="F F F"
O        0.01750000      -0.06780000       0.00240000
C       -0.00120000       1.14710000       0.00900000
N       -1.09740000       2.00820000       0.02960000
C       -0.71330000       3.35720000       0.03060000
C        0.63360000       3.37610000       0.01080000
C        1.85560000       4.25600000      -0.00320000
C        2.97070000       3.21250000      -0.02530000
C        2.45820000       1.97610000      -0.02380000
N        1.06220000       2.04210000      -0.00220000
H       -2.03870000       1.65800000       0.04140000
H       -1.43670000       4.15380000       0.04530000
H        1.89370000       4.91690000      -0.87900000
H        1.92020000       4.90800000       0.87770000
H        4.02170000       3.45870000      -0.03990000
H        2.94490000       1.01270000      -0.03590000
