19
Properties=species:S:1:pos:R:3 gdb_37775=T pbc="F F F"
C       -0.08380000       1.62340000       0.01160000
C        1.42580000       1.26570000      -0.00520000
C        1.09570000       0.20520000       1.10760000
C        2.01460000      -0.90320000       1.49090000
C        2.69950000      -1.73650000       0.69110000
C        2.68530000      -1.72880000      -0.75760000
C        1.98480000      -0.88740000      -1.53500000
C        1.07360000       0.21670000      -1.12210000
C       -0.01540000       0.07350000       0.00290000
H       -0.46570000       2.09120000       0.92210000
H       -0.48360000       2.10060000      -0.88620000
H        2.27850000       1.94550000      -0.01020000
H        0.71000000       0.67750000       2.01600000
H        2.13150000      -1.03760000       2.56400000
H        3.32580000      -2.49050000       1.16130000
H        3.30230000      -2.47770000      -1.24790000
H        2.08080000      -1.01040000      -2.61160000
H        0.67000000       0.69830000      -2.01780000
H       -0.84290000      -0.63680000       0.00750000
