20
Properties=species:S:1:pos:R:3 gdb_58656=T pbc="F F F"
C        0.25110000       1.05370000       0.73370000
C       -0.31940000      -0.20490000       1.40380000
C       -0.59300000       0.00880000       2.89930000
C       -1.57670000      -0.67030000       0.67630000
O       -1.39970000      -1.27740000      -0.61060000
C       -1.93610000      -2.09210000       0.43590000
C       -1.12960000      -3.27520000       0.90220000
C       -2.68960000       0.27280000       0.72820000
N       -3.56210000       1.02800000       0.79840000
H        1.19050000       1.34580000       1.21230000
H        0.44750000       0.87560000      -0.32730000
H       -0.44470000       1.89530000       0.81610000
H        0.41420000      -1.00820000       1.28980000
H       -0.96320000      -0.90420000       3.37650000
H        0.32560000       0.30930000       3.41150000
H       -1.33660000       0.79690000       3.05610000
H       -3.00190000      -2.29350000       0.31560000
H       -0.07030000      -3.03980000       1.01320000
H       -1.51510000      -3.64040000       1.85960000
H       -1.22120000      -4.08730000       0.17370000
