21
Properties=species:S:1:pos:R:3 gdb_111109=T pbc="F F F"
C       -0.00150000       1.31880000      -0.22430000
O       -0.08830000       0.03670000       0.35500000
C       -1.35010000      -0.56040000       0.19410000
C       -1.59630000      -1.28000000      -1.17620000
C       -0.69220000      -2.41950000      -0.61710000
C       -1.35540000      -2.01520000       0.73380000
C       -2.81510000      -2.42050000       0.50330000
O       -3.64190000      -1.80340000       1.47750000
C       -3.00320000      -1.86120000      -0.95410000
H        0.99220000       1.71170000       0.00450000
H       -0.12810000       1.29240000      -1.31690000
H       -0.75820000       2.00210000       0.19210000
H       -2.14230000       0.10990000       0.55380000
H       -1.39550000      -0.79190000      -2.13060000
H       -0.86070000      -3.43480000      -0.98940000
H        0.36690000      -2.16980000      -0.64300000
H       -0.92010000      -2.25840000       1.70220000
H       -2.93410000      -3.51230000       0.54020000
H       -4.55610000      -2.02820000       1.27940000
H       -3.78960000      -1.09960000      -0.97100000
H       -3.25560000      -2.63870000      -1.68130000
