18
Properties=species:S:1:pos:R:3 gdb_35419=T pbc="F F F"
N        0.24350000      -1.07250000       0.83390000
C        0.14450000       0.02500000       0.48140000
C        0.02850000       1.40370000       0.03820000
C       -0.51660000       2.42080000       1.09940000
C        0.86700000       3.13630000       1.11470000
C        1.78080000       2.75410000       2.24750000
C        2.74000000       1.90890000       1.87010000
C        2.67940000       1.56450000       0.39870000
C        1.36900000       2.23190000      -0.06050000
H       -0.54110000       1.41030000      -0.89440000
H       -1.33060000       3.02950000       0.70040000
H       -0.83400000       1.98060000       2.04600000
H        0.82450000       4.21650000       0.94550000
H        1.64230000       3.13280000       3.25460000
H        3.50170000       1.50090000       2.52540000
H        3.54780000       1.96380000      -0.14160000
H        2.67850000       0.48170000       0.22600000
H        1.45330000       2.71610000      -1.03350000
