18
Properties=species:S:1:pos:R:3 gdb_54684=T pbc="F F F"
C        0.06950000       1.40130000       0.20880000
C        0.06790000      -0.10830000       0.28990000
O        1.07320000      -0.77010000       0.38270000
C       -1.29660000      -0.78190000       0.24270000
N       -2.34570000      -0.06940000       0.15210000
C       -3.64020000      -0.73380000       0.04260000
C       -3.52710000      -2.19800000      -0.39130000
C       -2.41890000      -2.85480000       0.42070000
O       -1.18900000      -2.12570000       0.30040000
H        1.09760000       1.75770000       0.27970000
H       -0.38320000       1.73100000      -0.73080000
H       -0.54200000       1.82820000       1.00840000
H       -4.14780000      -0.65600000       1.01400000
H       -4.25190000      -0.16110000      -0.66290000
H       -4.47020000      -2.73340000      -0.24410000
H       -3.27670000      -2.25490000      -1.45650000
H       -2.68990000      -2.89990000       1.48390000
H       -2.19310000      -3.86800000       0.08160000
