15
Properties=species:S:1:pos:R:3 gdb_24564=T pbc="F F F"
N       -0.04560000       1.31840000      -0.05110000
C        0.96080000       2.29570000      -0.01340000
N        2.13610000       2.28560000      -0.48350000
C        2.82270000       1.25270000      -1.09080000
C        3.24090000       0.08080000      -0.56200000
N        3.06980000      -0.38140000       0.72210000
C        1.94160000      -0.67570000       1.25350000
N        0.72370000      -0.85430000       0.65880000
C       -0.05280000      -0.05950000       0.04560000
H       -0.96830000       1.71060000      -0.17810000
H        0.58500000       3.23430000       0.39700000
H        3.28390000       1.55630000      -2.02810000
H        3.97430000      -0.47690000      -1.14140000
H        1.95950000      -1.01550000       2.29120000
H       -0.95430000      -0.48500000      -0.40030000
