20
Properties=species:S:1:pos:R:3 gdb_22299=T pbc="F F F"
C        0.00800000       1.52330000       0.04800000
C       -0.01760000       0.02340000      -0.02090000
C       -0.06440000      -0.63480000      -1.19290000
C       -0.03590000      -2.09020000      -1.27770000
C        0.24670000      -2.85590000      -0.00730000
C       -0.43290000      -2.17210000       1.18580000
C        0.01670000      -0.70960000       1.30060000
N       -0.20630000      -2.78880000      -2.34360000
O       -0.44270000      -1.98970000      -3.47630000
H        0.89020000       1.87420000       0.59980000
H        0.02340000       1.97680000      -0.94600000
H       -0.86590000       1.90740000       0.59020000
H       -0.11580000      -0.08720000      -2.12630000
H       -0.07820000      -3.89220000      -0.12600000
H        1.33300000      -2.87430000       0.16190000
H       -1.52050000      -2.20500000       1.04840000
H       -0.21110000      -2.71090000       2.11250000
H        1.04050000      -0.65960000       1.70360000
H       -0.60560000      -0.17470000       2.02970000
H       -0.52610000      -2.65140000      -4.17000000
