21
Properties=species:S:1:pos:R:3 gdb_120899=T pbc="F F F"
O       -0.03240000       1.35710000      -0.37380000
C       -0.03150000      -0.03700000      -0.10510000
C       -1.44090000      -0.60380000       0.08470000
C       -1.43560000      -2.08960000       0.39370000
C       -2.78240000      -2.84810000       0.34230000
C       -2.11280000      -3.65300000      -0.76470000
C       -2.08880000      -5.12730000      -0.99780000
C       -2.65290000      -4.17890000      -2.05130000
O       -0.91120000      -2.88160000      -0.71050000
H       -0.44320000       1.48830000      -1.23410000
H        0.48710000      -0.60230000      -0.89250000
H        0.54690000      -0.15930000       0.81770000
H       -1.94020000      -0.06590000       0.90070000
H       -2.03010000      -0.43470000      -0.82700000
H       -0.85430000      -2.28890000       1.30450000
H       -3.04960000      -3.40540000       1.24200000
H       -3.63200000      -2.23830000       0.02470000
H       -1.12380000      -5.57840000      -1.20250000
H       -2.77650000      -5.75490000      -0.43970000
H       -3.72600000      -4.15720000      -2.21380000
H       -2.05460000      -4.01360000      -2.94100000
