17
Properties=species:S:1:pos:R:3 gdb_21205=T pbc="F F F"
C        0.09600000       1.37750000       0.13210000
N       -0.02420000      -0.01820000      -0.24910000
C       -1.25020000      -0.64830000      -0.08700000
N       -1.30710000      -1.96300000       0.11440000
N       -2.64100000      -2.22910000       0.15660000
C       -3.41750000      -1.13160000       0.00400000
C       -4.91040000      -1.18510000       0.03180000
C       -2.54580000      -0.07120000      -0.15740000
H        1.12990000       1.69810000      -0.01780000
H       -0.53430000       1.99860000      -0.51300000
H       -0.18560000       1.58230000       1.17770000
H        0.73190000      -0.60190000       0.08060000
H       -2.93850000      -3.17770000       0.30270000
H       -5.29100000      -1.48950000       1.01400000
H       -5.32460000      -0.20040000      -0.19380000
H       -5.30590000      -1.89080000      -0.70760000
H       -2.81330000       0.96120000      -0.31050000
