21
Properties=species:S:1:pos:R:3 gdb_75752=T pbc="F F F"
C       -0.12720000       1.58900000      -0.04000000
C        0.01180000       0.06200000       0.06850000
C        0.78010000      -0.52040000      -1.12820000
O        0.55920000      -0.27220000      -2.28570000
C        1.88420000      -1.43370000      -0.59440000
C        1.79330000      -1.27260000       0.90410000
C        2.76670000      -1.99360000       1.78450000
C        0.78290000      -0.46350000       1.26400000
C        0.35990000      -0.08190000       2.64970000
H        0.84940000       2.07810000       0.03930000
H       -0.56010000       1.84740000      -1.00990000
H       -0.77340000       1.98850000       0.74670000
H       -1.00300000      -0.36780000       0.04820000
H        1.71300000      -2.46720000      -0.92870000
H        2.85610000      -1.14230000      -1.01520000
H        3.79820000      -1.70430000       1.54490000
H        2.60310000      -1.79930000       2.84640000
H        2.70730000      -3.07860000       1.62750000
H        0.96830000      -0.55700000       3.42200000
H        0.41900000       1.00320000       2.79960000
H       -0.68690000      -0.36180000       2.82850000
