20
Properties=species:S:1:pos:R:3 gdb_117753=T pbc="F F F"
C        0.06950000       1.61360000       0.02420000
C        0.00250000       0.07140000       0.00380000
C        0.70260000      -0.49440000       1.27650000
O        2.05440000      -0.11440000       1.38490000
C       -1.44690000      -0.46510000      -0.04120000
C       -2.25790000      -0.05860000      -1.26780000
O       -3.52330000      -0.68810000      -1.14360000
C        0.76490000      -0.43290000      -1.15110000
N        1.40370000      -0.84390000      -2.02370000
H        1.09270000       1.93560000       0.22570000
H       -0.25490000       2.04960000      -0.92280000
H       -0.57840000       1.99290000       0.82090000
H        0.19360000      -0.08090000       2.15310000
H        0.58120000      -1.58680000       1.29680000
H        2.54680000      -0.55510000       0.68230000
H       -1.43370000      -1.55960000       0.00370000
H       -1.96750000      -0.11440000       0.85740000
H       -2.36370000       1.03570000      -1.31440000
H       -1.73580000      -0.38040000      -2.18180000
H       -4.04470000      -0.47270000      -1.92230000
