20
Properties=species:S:1:pos:R:3 gdb_98678=T pbc="F F F"
C        0.41800000       1.27950000       0.33030000
C        0.04870000      -0.16140000       0.03890000
C       -1.38730000      -0.53850000       0.34150000
C        0.77740000      -0.87960000      -1.07270000
N        1.03190000      -1.19330000       0.31980000
C        2.20260000      -1.08350000       1.02700000
O        2.28200000      -0.53760000       2.11370000
C        3.42280000      -1.78820000       0.43570000
O        4.50390000      -1.70130000       1.31600000
H        1.44100000       1.50570000       0.01870000
H       -0.26140000       1.95410000      -0.20030000
H        0.34430000       1.48510000       1.40170000
H       -2.07610000       0.05670000      -0.26700000
H       -1.56560000      -1.59710000       0.13790000
H       -1.61800000      -0.35060000       1.39510000
H        0.26980000      -1.64890000      -1.64950000
H        1.54070000      -0.32770000      -1.61730000
H        3.15520000      -2.83490000       0.22440000
H        3.66440000      -1.32460000      -0.53510000
H        4.15950000      -1.20350000       2.07640000
