13
Properties=species:S:1:pos:R:3 gdb_25311=T pbc="F F F"
O        0.07380000      -0.08680000      -0.00170000
C       -0.00190000       1.12680000       0.00940000
C        1.17380000       1.97930000       0.00330000
C        1.33780000       3.36830000       0.01330000
C        2.73260000       3.63100000      -0.00060000
C        3.37190000       2.40700000      -0.01800000
N        2.42510000       1.43130000      -0.01550000
C        0.29020000       4.32210000       0.03340000
N       -0.56390000       5.10450000       0.04970000
H       -0.97140000       1.65970000       0.02500000
H        3.20020000       4.60200000       0.00220000
H        4.42350000       2.16920000      -0.03200000
H        2.56350000       0.43190000      -0.02550000
