20
Properties=species:S:1:pos:R:3 gdb_82474=T pbc="F F F"
C        0.01920000       1.53930000      -0.02250000
C        0.07830000       0.01600000       0.01030000
C        1.08890000      -0.62970000      -0.96350000
O        2.34190000      -0.00940000      -0.55440000
C        2.23590000      -0.82650000       0.61650000
C        3.44840000      -0.93820000       1.48460000
C        1.46340000      -1.93820000      -0.11910000
N        0.57280000      -2.10360000       1.03240000
C        0.75850000      -0.63980000       1.24090000
H        1.02090000       1.96750000       0.04820000
H       -0.43750000       1.89690000      -0.95170000
H       -0.58250000       1.92030000       0.80970000
H       -0.92700000      -0.40520000      -0.11590000
H        0.91950000      -0.60880000      -2.03910000
H        3.68310000       0.02700000       1.94590000
H        3.26640000      -1.66660000       2.27950000
H        4.31590000      -1.25960000       0.90080000
H        1.89580000      -2.80590000      -0.61660000
H       -0.38690000      -2.36730000       0.80910000
H        0.56710000      -0.24000000       2.23720000
