18
Properties=species:S:1:pos:R:3 gdb_42079=T pbc="F F F"
C       -0.07510000       1.39670000       0.08510000
C        1.34410000       1.93270000      -0.10000000
C        2.18650000       0.77060000       0.43840000
C        1.32740000      -0.45390000       0.07310000
O        0.01660000       0.00910000      -0.23050000
C        3.68700000       0.72800000       0.04550000
N        4.43450000       0.91530000       1.29740000
C        3.55810000       0.97930000       2.20920000
O        2.24480000       0.88640000       1.89820000
H       -0.41180000       1.54020000       1.12280000
H       -0.81200000       1.84680000      -0.58550000
H        1.56240000       2.07540000      -1.16400000
H        1.54620000       2.86490000       0.43110000
H        1.72900000      -0.96970000      -0.80830000
H        1.31090000      -1.16000000       0.91280000
H        3.96890000      -0.22790000      -0.41130000
H        3.94450000       1.51610000      -0.66990000
H        3.76000000       1.10330000       3.26760000
