17
Properties=species:S:1:pos:R:3 gdb_124808=T pbc="F F F"
C        0.04740000       1.39580000      -0.45730000
C       -0.00280000       0.04290000       0.25810000
O        0.37770000       0.22960000       1.60690000
C       -1.36030000      -0.60470000       0.14700000
N       -1.99070000      -0.92500000       1.25030000
O       -3.19520000      -1.52690000       0.83520000
C       -3.22760000      -1.53300000      -0.50450000
N       -4.37380000      -2.02730000      -1.07270000
C       -2.09190000      -0.96670000      -1.01560000
H        1.04180000       1.83190000      -0.33150000
H       -0.15310000       1.28730000      -1.52760000
H       -0.68930000       2.07830000      -0.02500000
H        0.71710000      -0.63350000      -0.23520000
H       -0.23660000      -0.27270000       2.15710000
H       -4.89530000      -2.65820000      -0.48100000
H       -4.27240000      -2.36340000      -2.01790000
H       -1.82730000      -0.82730000      -2.04960000
