17
Properties=species:S:1:pos:R:3 gdb_96623=T pbc="F F F"
C       -0.04820000       1.55660000      -0.36860000
N        0.04350000       0.12710000      -0.14090000
C       -1.04620000      -0.49820000       0.11360000
N       -2.31130000       0.00310000       0.22730000
C       -0.98160000      -1.98810000       0.36500000
O       -2.00090000      -2.62020000       0.54940000
C        0.37700000      -2.62380000       0.39060000
C        0.61920000      -3.69620000       1.38080000
O        0.40120000      -4.00480000       0.01870000
H        0.95080000       1.96980000      -0.52270000
H       -0.64720000       1.79380000      -1.26320000
H       -0.51030000       2.08200000       0.48200000
H       -2.53600000       0.89830000      -0.17000000
H       -3.04530000      -0.68770000       0.28170000
H        1.20180000      -2.01670000       0.03760000
H        1.63270000      -3.84450000       1.75080000
H       -0.19050000      -3.97110000       2.05410000
