16
Properties=species:S:1:pos:R:3 gdb_66652=T pbc="F F F"
C       -0.00410000       1.48570000       0.02110000
C        0.01100000      -0.01710000      -0.00320000
C       -0.86170000      -0.89310000       0.88060000
C       -0.74720000      -2.31220000       0.23040000
C        0.71410000      -2.30070000       0.43000000
C        0.62810000      -0.88140000       1.08410000
N        0.15640000      -2.17780000      -0.94330000
C        0.19270000      -0.76880000      -1.29060000
O        0.34020000      -0.33700000      -2.39550000
H        0.93700000       1.88620000      -0.36760000
H       -0.81230000       1.87240000      -0.60690000
H       -0.14590000       1.86810000       1.03580000
H       -1.65570000      -0.51530000       1.50810000
H       -1.47970000      -3.10790000       0.22930000
H        1.43240000      -3.08500000       0.62690000
H        1.21880000      -0.49270000       1.90070000
