12
Properties=species:S:1:pos:R:3 gdb_23756=T pbc="F F F"
O        0.08810000       1.36700000      -0.06370000
C        0.05750000       0.01790000      -0.05060000
C        0.02120000      -0.71710000      -1.23150000
C       -0.00910000      -2.10560000      -1.14460000
N       -0.00590000      -2.79280000       0.00160000
C        0.02900000      -2.08480000       1.13440000
C        0.06070000      -0.70410000       1.14350000
F        0.09570000      -0.00480000       2.29460000
H        0.11030000       1.67610000       0.85130000
H        0.01720000      -0.20500000      -2.18620000
H       -0.03760000      -2.69780000      -2.05550000
H        0.03220000      -2.62590000       2.07720000
