19
Properties=species:S:1:pos:R:3 gdb_99480=T pbc="F F F"
C        0.22220000       1.50320000      -0.63830000
C        0.13690000      -0.01660000      -0.50340000
C       -1.12960000      -0.49120000       0.25850000
C       -2.36520000      -0.14690000      -0.43850000
C       -3.36740000       0.15410000      -1.03040000
C       -1.01300000      -1.98540000       0.60950000
O        0.01410000      -2.43050000       1.07440000
C       -2.19720000      -2.90990000       0.39890000
O       -1.91150000      -4.20700000       0.82550000
H        1.12510000       1.78930000      -1.18570000
H       -0.64170000       1.90390000      -1.17650000
H        0.26030000       1.98620000       0.34440000
H        0.14120000      -0.48440000      -1.49430000
H        0.99980000      -0.40760000       0.04150000
H       -1.13230000       0.01630000       1.23610000
H       -4.25950000       0.41380000      -1.54550000
H       -3.06460000      -2.48720000       0.93140000
H       -2.46380000      -2.87830000      -0.67040000
H       -0.99240000      -4.17780000       1.13570000
