14
Properties=species:S:1:pos:R:3 gdb_73744=T pbc="F F F"
N        0.01700000       1.30440000       0.06260000
C       -0.03200000      -0.03850000       0.01700000
C       -1.11430000      -0.86380000       0.01040000
C       -2.45680000      -0.42910000       0.01840000
N       -3.52960000       0.01060000       0.02380000
C       -0.65090000      -2.25350000      -0.01140000
N       -1.35210000      -3.30100000      -0.02290000
O        0.73590000      -2.23100000      -0.02050000
C        1.20840000      -0.89330000       0.00030000
H        0.88160000       1.79730000      -0.07490000
H       -0.83580000       1.83700000      -0.00530000
H       -0.76510000      -4.13470000      -0.03990000
H        1.82630000      -0.70160000      -0.88780000
H        1.82840000      -0.72840000       0.89170000
