22
Properties=species:S:1:pos:R:3 gdb_96275=T pbc="F F F"
C        0.77330000       1.34800000       0.33210000
C       -0.07290000       0.15620000      -0.13590000
C        0.69270000      -0.63530000      -1.21180000
C        0.02650000      -1.92230000      -1.71980000
C       -0.33070000      -2.93050000      -0.60970000
O        0.55960000      -2.88480000       0.50970000
C        0.50250000      -1.82790000       1.37830000
N        1.27290000      -1.77570000       2.38460000
C       -0.48280000      -0.72360000       1.08450000
H        1.66080000       0.99820000       0.87050000
H        1.10560000       1.95680000      -0.51530000
H        0.20620000       1.99360000       1.01010000
H       -0.99770000       0.54220000      -0.58400000
H        0.87580000       0.02280000      -2.06880000
H        1.68220000      -0.89110000      -0.81340000
H       -0.89030000      -1.68810000      -2.27510000
H        0.70820000      -2.39580000      -2.43470000
H       -1.36230000      -2.79380000      -0.26940000
H       -0.25140000      -3.95500000      -0.98110000
H        1.87270000      -2.60430000       2.40370000
H       -0.54250000      -0.10930000       1.98370000
H       -1.47720000      -1.15060000       0.92270000
