21
Properties=species:S:1:pos:R:3 gdb_108486=T pbc="F F F"
O       -0.17220000       1.46360000      -0.14610000
C        0.02370000       0.05300000      -0.02090000
C       -1.35200000      -0.55130000       0.05170000
C       -2.13510000      -0.39230000       1.38940000
C       -2.24210000      -1.94150000       1.51710000
C       -1.69990000      -2.08940000       0.07800000
C       -2.77110000      -1.83170000      -1.02720000
C       -2.23500000      -0.39260000      -1.21110000
O       -3.21680000       0.61490000      -1.22910000
H        0.68780000       1.88750000      -0.22260000
H        0.56850000      -0.34510000      -0.89280000
H        0.61350000      -0.18690000       0.87830000
H       -1.57390000       0.10340000       2.18450000
H       -3.08690000       0.12740000       1.26210000
H       -1.55180000      -2.34240000       2.26510000
H       -3.23460000      -2.36170000       1.70590000
H       -0.96990000      -2.87350000      -0.12960000
H       -2.71640000      -2.46870000      -1.91210000
H       -3.79600000      -1.85110000      -0.64640000
H       -1.58920000      -0.32730000      -2.10110000
H       -2.74960000       1.45520000      -1.15150000
