15
Properties=species:S:1:pos:R:3 gdb_34704=T pbc="F F F"
N        0.00020000      -1.22280000      -0.05990000
C       -0.01540000      -0.06720000      -0.03400000
C       -0.03280000       1.38670000       0.02980000
C       -0.26890000       2.09940000       1.38500000
C        0.91390000       1.67340000       2.28330000
C        1.72680000       2.92610000       1.98480000
C        2.01430000       1.66740000       1.22160000
N        1.30980000       2.09480000      -0.03070000
C        0.70680000       3.20500000       0.86120000
H       -0.66850000       1.78910000      -0.76460000
H       -1.25360000       2.26710000       1.81690000
H        0.91790000       1.03700000       3.15610000
H        2.35130000       3.55590000       2.60140000
H        2.87200000       1.00970000       1.21990000
H        0.42850000       4.14850000       0.39770000
