19
Properties=species:S:1:pos:R:3 gdb_34408=T pbc="F F F"
N        0.03550000      -1.14800000      -0.37930000
C        0.01710000      -0.01050000      -0.17380000
C        0.00910000       1.43600000       0.05850000
C       -0.83040000       2.19150000      -0.99690000
C       -0.16740000       3.57640000      -1.11090000
C        1.33590000       3.27510000      -0.95720000
C        1.40170000       2.18170000       0.11370000
C        1.00440000       2.61710000       1.54840000
N       -0.22040000       1.78440000       1.48000000
H       -0.76420000       1.66050000      -1.95270000
H       -1.88860000       2.22530000      -0.71920000
H       -0.40880000       4.07650000      -2.05200000
H       -0.51090000       4.23320000      -0.30380000
H        1.73860000       2.89100000      -1.90160000
H        1.92430000       4.15710000      -0.68550000
H        2.28840000       1.55180000       0.05320000
H        1.68440000       2.30110000       2.34610000
H        0.83290000       3.69590000       1.64940000
H       -1.09790000       2.25800000       1.66260000
