22
Properties=species:S:1:pos:R:3 gdb_105242=T pbc="F F F"
C        2.07560000       0.87760000      -0.73990000
C        1.15700000      -0.26510000      -0.35690000
C        1.68660000      -1.55420000       0.24270000
C        0.83380000      -0.63950000       1.07500000
C        1.45630000       0.09740000       2.24910000
O        1.48870000      -0.72080000       3.40100000
N       -0.48200000      -1.10100000       1.49370000
C       -1.66280000      -0.32700000       1.11550000
C       -1.42640000      -1.68840000       0.55960000
H        2.93460000       0.95630000      -0.06850000
H        2.46810000       0.73010000      -1.75230000
H        1.55190000       1.83990000      -0.72500000
H        0.33820000      -0.40150000      -1.06030000
H        1.25490000      -2.49070000      -0.09560000
H        2.74280000      -1.61340000       0.48660000
H        2.48720000       0.38670000       2.02900000
H        0.88570000       1.02420000       2.43590000
H        0.63890000      -1.18300000       3.39640000
H       -2.39970000      -0.16690000       1.89710000
H       -1.51830000       0.51200000       0.43800000
H       -1.15850000      -1.75790000      -0.49230000
H       -1.98090000      -2.54370000       0.93610000
