17
Properties=species:S:1:pos:R:3 gdb_4082=T pbc="F F F"
O       -0.06260000       1.38170000       0.05630000
N        0.06350000      -0.01760000      -0.00500000
C       -1.06560000      -0.61160000      -0.02330000
C       -1.06810000      -2.11850000      -0.04050000
C       -2.09550000      -2.64440000      -1.05890000
C       -3.42970000      -1.92340000      -0.86650000
O       -3.27890000      -0.52130000      -1.01030000
C       -2.42550000       0.05280000      -0.03170000
H        0.85550000       1.66670000       0.00370000
H       -0.05870000      -2.48630000      -0.23940000
H       -1.35370000      -2.47480000       0.96080000
H       -1.73900000      -2.45790000      -2.07820000
H       -2.22920000      -3.72590000      -0.94590000
H       -4.15970000      -2.22730000      -1.62210000
H       -3.85020000      -2.16230000       0.12680000
H       -2.87770000      -0.04010000       0.97250000
H       -2.33700000       1.11170000      -0.27040000
