15
Properties=species:S:1:pos:R:3 gdb_31219=T pbc="F F F"
O       -0.09270000       1.39020000      -0.42100000
C        0.00560000       0.08010000       0.13190000
C       -1.34780000      -0.53830000       0.06380000
C       -1.78440000      -1.84660000      -0.01160000
N       -3.17130000      -1.88710000      -0.00170000
C       -3.55170000      -0.63680000       0.07150000
N       -2.48760000       0.21790000       0.12620000
C       -0.97170000      -3.00260000      -0.08690000
C       -0.25490000      -3.96850000      -0.15180000
H        0.73680000       1.84800000      -0.25630000
H        0.71670000      -0.55280000      -0.41720000
H        0.35340000       0.12860000       1.17700000
H       -4.57300000      -0.28690000       0.08370000
H       -2.49160000       1.22510000       0.11570000
H        0.36400000      -4.82890000      -0.21070000
