21
Properties=species:S:1:pos:R:3 gdb_64168=T pbc="F F F"
C       -0.48350000       1.51000000       0.24990000
C        0.01280000       0.08930000       0.03210000
C       -1.04420000      -0.76200000      -0.66440000
O        1.25080000       0.07820000      -0.73570000
C        1.87570000      -0.83770000       0.17410000
C        0.75490000      -0.64050000       1.23340000
C        1.19520000       0.27240000       2.38770000
C        0.13420000      -1.84610000       1.75520000
C       -0.36620000      -2.84050000       2.21120000
H        0.28390000       2.14980000       0.68800000
H       -0.77150000       1.94290000      -0.71360000
H       -1.36430000       1.51860000       0.90020000
H       -1.29720000      -0.30770000      -1.62730000
H       -0.68300000      -1.77680000      -0.84500000
H       -1.95390000      -0.83050000      -0.06000000
H        1.93700000      -1.85550000      -0.23040000
H        2.87550000      -0.50590000       0.47670000
H        1.74480000       1.13870000       2.01120000
H        0.33700000       0.62470000       2.96640000
H        1.85310000      -0.28100000       3.06420000
H       -0.81080000      -3.72100000       2.60480000
