17
Properties=species:S:1:pos:R:3 gdb_19417=T pbc="F F F"
C       -0.00300000       1.52190000      -0.02090000
C        1.30040000       0.77370000      -0.00310000
C       -0.00950000       0.00930000      -0.00100000
C       -0.46540000      -0.77370000       1.18330000
C       -1.02830000      -1.93350000       0.82690000
C       -1.07300000      -2.05210000      -0.66110000
N       -1.91020000      -0.98860000      -1.29760000
C       -0.44320000      -0.81090000      -1.19170000
H       -0.31230000       2.03840000       0.88150000
H       -0.31120000       2.00850000      -0.93980000
H        1.89010000       0.74640000      -0.91440000
H        1.88870000       0.77620000       0.90830000
H       -0.36210000      -0.40200000       2.19700000
H       -1.43820000      -2.67510000       1.50090000
H       -0.99370000      -3.01400000      -1.15640000
H       -2.11930000      -1.28000000      -2.25210000
H        0.15190000      -0.80030000      -2.09950000
