20
Properties=species:S:1:pos:R:3 gdb_62683=T pbc="F F F"
C       -0.05630000       1.57850000       0.01560000
C        0.06840000       0.05290000       0.03380000
C       -1.20950000      -0.60950000      -0.48640000
C        1.26010000      -0.86120000      -0.32760000
N        2.68480000      -0.55770000       0.08310000
C        2.79170000       0.76710000       0.71480000
C        2.17220000      -0.33980000       1.48350000
C        0.74290000      -0.79030000       1.08350000
O        0.11950000      -1.78330000       1.82150000
H        0.39170000       2.02020000      -0.88110000
H       -1.11630000       1.85440000       0.01020000
H        0.38950000       2.05160000       0.89250000
H       -1.43070000      -0.25660000      -1.49940000
H       -1.13570000      -1.69840000      -0.50470000
H       -2.06270000      -0.34770000       0.15020000
H        1.14210000      -1.61650000      -1.09450000
H        3.82210000       0.99790000       0.97830000
H        2.24020000       1.60970000       0.32930000
H        2.67020000      -0.81680000       2.32260000
H       -0.44520000      -1.36190000       2.47970000
