22
Properties=species:S:1:pos:R:3 gdb_8308=T pbc="F F F"
C        0.00450000       1.59970000       0.09280000
C        0.08250000       0.08240000       0.03090000
C        1.13150000      -0.58750000      -0.90120000
C        1.36630000      -1.66750000       0.19090000
C        2.78140000      -2.17620000       0.42750000
C        2.88080000      -3.14630000       1.59820000
O        4.23820000      -3.54450000       1.72690000
C        0.71800000      -0.69400000       1.21850000
H        0.98810000       2.03490000       0.30420000
H       -0.34850000       2.02040000      -0.85570000
H       -0.68240000       1.93240000       0.87950000
H       -0.91040000      -0.33040000      -0.18310000
H        0.80720000      -0.91780000      -1.89170000
H        2.01580000       0.04960000      -1.01980000
H        0.69250000      -2.51590000       0.01630000
H        3.15680000      -2.67910000      -0.47290000
H        3.45570000      -1.33130000       0.61760000
H        2.52110000      -2.65760000       2.51830000
H        2.22660000      -4.01530000       1.41610000
H        4.30540000      -4.14530000       2.47460000
H        1.48230000      -0.08830000       1.72040000
H        0.05010000      -1.10790000       1.97890000
