13
Properties=species:S:1:pos:R:3 gdb_28395=T pbc="F F F"
N        0.08790000       1.35270000       0.19100000
C       -0.07140000      -0.00870000       0.06560000
C       -1.23210000      -0.71150000       0.02380000
N       -1.22160000      -2.08370000      -0.01290000
C       -0.09610000      -2.70630000      -0.01880000
O       -0.03310000      -4.05110000      -0.05290000
C        1.21740000      -2.04440000       0.00280000
O        2.30260000      -2.54740000      -0.01970000
O        1.11690000      -0.65360000       0.04960000
H        0.96120000       1.70420000      -0.17580000
H       -0.71170000       1.90450000      -0.08020000
H       -2.19410000      -0.21670000       0.02810000
H       -0.94880000      -4.36350000      -0.06530000
