18
Properties=species:S:1:pos:R:3 gdb_89045=T pbc="F F F"
N        0.04760000       0.61050000      -0.62490000
C       -0.23310000      -0.66900000      -0.26480000
O        0.35080000      -1.64300000      -0.71000000
O       -1.21510000      -0.69570000       0.65240000
C       -1.51800000      -1.98630000       1.24050000
C       -2.56620000      -2.79650000       0.50750000
C       -2.69160000      -2.79100000      -1.01290000
C       -2.10120000      -3.98370000      -0.32810000
O       -0.75020000      -4.28330000      -0.42460000
H        0.64690000       0.74830000      -1.41910000
H       -0.55490000       1.35670000      -0.32530000
H       -0.58480000      -2.54890000       1.32360000
H       -1.87100000      -1.73810000       2.24230000
H       -3.50090000      -2.91120000       1.04710000
H       -3.69250000      -2.85670000      -1.42610000
H       -2.01610000      -2.16390000      -1.58230000
H       -2.68830000      -4.89490000      -0.27280000
H       -0.26250000      -3.46910000      -0.63550000
