16
Properties=species:S:1:pos:R:3 gdb_17179=T pbc="F F F"
C       -0.00400000       1.38020000      -0.00200000
O       -0.03670000      -0.03280000       0.11540000
C        0.62320000      -0.51930000       1.20750000
C        0.34050000      -0.30250000       2.71720000
C        1.50780000      -1.31130000       2.70150000
C        0.99930000      -2.01680000       1.40480000
O        2.27790000      -1.92810000       0.71300000
C        2.18070000      -0.67490000       1.44830000
H        1.02620000       1.75080000      -0.09240000
H       -0.55590000       1.63580000      -0.90840000
H       -0.48140000       1.86830000       0.85850000
H        0.56020000       0.68570000       3.13000000
H       -0.61900000      -0.67210000       3.08880000
H        2.02420000      -1.78800000       3.53010000
H        0.38990000      -2.91150000       1.28310000
H        2.99770000       0.04270000       1.38040000
