12
Properties=species:S:1:pos:R:3 gdb_133358=T pbc="F F F"
N       -0.00500000       1.35990000       0.00820000
C       -0.04820000       0.01310000       0.00090000
N       -1.18640000      -0.62420000       0.00430000
C       -1.18680000      -2.00800000      -0.00360000
O       -2.17240000      -2.70890000      -0.00120000
N        0.09120000      -2.61390000      -0.01480000
N        1.27140000      -1.98400000      -0.01860000
C        1.20800000      -0.71030000      -0.01100000
F        2.34160000      -0.00770000      -0.01400000
H        0.87290000       1.84710000       0.00560000
H       -0.87110000       1.87230000       0.01660000
H        0.13010000      -3.62280000      -0.02070000
