15
Properties=species:S:1:pos:R:3 gdb_44279=T pbc="F F F"
O       -0.00330000      -0.02310000      -0.36440000
C       -0.06060000       1.13170000      -0.04060000
C       -1.36020000       1.86260000       0.20330000
N       -1.20960000       3.26150000       0.58860000
C       -0.13140000       3.68770000       1.45160000
C       -0.17630000       4.08970000       0.00950000
C        1.17360000       3.32190000      -0.23700000
C        1.21800000       2.92490000       1.18740000
N        1.13300000       1.89740000       0.13540000
H       -1.97100000       1.80970000      -0.70450000
H       -1.91870000       1.33840000       0.98630000
H       -0.34930000       4.24930000       2.35210000
H       -0.43670000       5.03230000      -0.45680000
H        1.96220000       3.64290000      -0.90570000
H        2.04900000       2.86680000       1.87890000
