23
Properties=species:S:1:pos:R:3 gdb_113220=T pbc="F F F"
C       -0.55250000       1.41250000      -0.76780000
C       -0.20070000       0.26320000       0.18430000
C       -1.32460000      -0.74360000       0.29070000
N       -1.46240000      -1.73050000      -0.79980000
C       -1.17080000      -2.20290000       0.56770000
C        0.19050000      -2.84990000       0.74700000
C       -2.24520000      -2.88440000       1.37670000
C       -3.68540000      -2.84120000       1.03780000
N       -2.92460000      -4.09490000       0.86910000
H        0.26640000       2.13480000      -0.83730000
H       -0.75440000       1.02880000      -1.77270000
H       -1.44430000       1.95150000      -0.42840000
H        0.70960000      -0.23250000      -0.16440000
H        0.01580000       0.65990000       1.18480000
H       -2.25680000      -0.31560000       0.66270000
H       -2.44070000      -1.86190000      -1.04510000
H        0.93580000      -2.39820000       0.09140000
H        0.53240000      -2.75840000       1.78400000
H        0.13590000      -3.91740000       0.50780000
H       -1.98880000      -2.96950000       2.43200000
H       -4.42660000      -2.85730000       1.83190000
H       -4.00590000      -2.29990000       0.15040000
H       -2.69440000      -4.21170000      -0.11660000
