17
Properties=species:S:1:pos:R:3 gdb_86289=T pbc="F F F"
O        0.17780000       1.38180000      -0.08240000
C        0.15190000      -0.00930000      -0.02250000
C        0.44120000      -0.73540000       1.32250000
C       -0.72920000      -1.71340000       1.01630000
O       -1.61260000      -2.08100000       2.02820000
C       -1.27340000      -0.67650000      -0.03510000
O       -2.16250000       0.21160000       0.66690000
C       -1.84360000      -1.13960000      -1.27830000
C       -2.32080000      -1.52440000      -2.31380000
H       -0.59540000       1.68070000       0.41530000
H        0.76840000      -0.39160000      -0.83950000
H        1.43560000      -1.15910000       1.47120000
H        0.19450000      -0.09030000       2.17110000
H       -0.38680000      -2.62570000       0.52250000
H       -2.12920000      -1.28820000       2.22690000
H       -2.96340000       0.30340000       0.14230000
H       -2.73440000      -1.86910000      -3.22960000
