21
Properties=species:S:1:pos:R:3 gdb_52785=T pbc="F F F"
C       -0.32740000       1.29570000       0.22160000
C       -0.13480000      -0.14270000       0.10890000
C        0.01730000      -1.33390000       0.01220000
C        0.21740000      -2.77490000      -0.10270000
C        1.15630000      -3.11770000      -1.25780000
C        0.50480000      -3.51590000       1.23730000
C       -0.82730000      -4.24720000       0.97570000
C       -1.94740000      -4.05900000       1.98040000
O       -1.04890000      -3.49150000      -0.24120000
H        0.62460000       1.83090000       0.13330000
H       -0.99000000       1.66850000      -0.56730000
H       -0.77270000       1.56670000       1.18520000
H        2.13140000      -2.64150000      -1.11550000
H        1.29430000      -4.20100000      -1.32070000
H        0.73200000      -2.76420000      -2.20140000
H        1.40390000      -4.13430000       1.23070000
H        0.50800000      -2.87160000       2.11700000
H       -0.70620000      -5.31410000       0.74280000
H       -2.06780000      -3.00030000       2.22910000
H       -2.89360000      -4.42450000       1.56910000
H       -1.73610000      -4.61580000       2.90050000
