20
Properties=species:S:1:pos:R:3 gdb_64391=T pbc="F F F"
C       -0.26710000       1.55330000      -0.10050000
C        0.06390000       0.06540000      -0.04010000
O       -1.14100000      -0.70560000       0.06140000
C        0.90840000      -0.44330000      -1.22570000
C        1.47440000      -1.77690000      -0.72680000
C        1.92480000      -1.44490000       0.70640000
C        0.88450000      -0.39770000       1.22300000
C        1.52250000       0.68840000       1.95760000
N        2.04440000       1.54210000       2.53750000
H        0.63560000       2.16910000      -0.11470000
H       -0.83780000       1.77030000      -1.01120000
H       -0.87260000       1.84950000       0.76040000
H       -1.69090000      -0.49030000      -0.69990000
H        0.30770000      -0.52670000      -2.13730000
H        1.72170000       0.26450000      -1.42930000
H        0.67820000      -2.52680000      -0.71110000
H        2.29160000      -2.16120000      -1.34190000
H        1.97530000      -2.31710000       1.36130000
H        2.92010000      -0.99130000       0.69100000
H        0.16100000      -0.87020000       1.89250000
