16
Properties=species:S:1:pos:R:3 gdb_81209=T pbc="F F F"
O        0.02040000       1.46820000       0.10860000
C        0.06720000       0.07030000       0.11580000
C       -0.03250000      -0.58390000       1.49440000
C       -1.59480000      -0.17150000       1.51820000
C       -1.25030000      -0.76790000       0.11980000
O       -1.56560000      -1.54330000      -1.08340000
C       -0.52870000      -2.43820000      -0.67790000
N        0.00650000      -3.36530000      -1.32230000
C       -0.51970000      -1.90550000       0.76800000
H       -0.08160000       1.76320000      -0.80180000
H        0.85520000      -0.32720000      -0.53550000
H        0.65840000      -0.47810000       2.33040000
H       -2.23620000      -0.77660000       2.15930000
H       -1.79750000       0.89560000       1.58920000
H       -0.38700000      -3.44510000      -2.26210000
H       -1.12820000      -2.55520000       1.39910000
