19
Properties=species:S:1:pos:R:3 gdb_110569=T pbc="F F F"
C       -0.29580000       1.31470000       0.04120000
O        0.34300000       0.07460000      -0.16740000
C        0.87550000      -0.47910000       1.00660000
C       -0.07570000      -1.27510000       1.93140000
C       -0.05320000      -2.50490000       0.97110000
O        0.30480000      -3.46260000       2.00760000
C        1.07640000      -2.25960000       2.33490000
C        1.96860000      -2.27710000       3.53380000
C        1.38380000      -1.91320000       0.83640000
H        0.39560000       2.06090000       0.46320000
H       -0.64480000       1.66890000      -0.93160000
H       -1.15930000       1.22520000       0.71720000
H        1.55080000       0.23360000       1.50400000
H       -0.90190000      -0.95010000       2.56360000
H       -0.75900000      -2.80470000       0.20040000
H        2.72570000      -3.06110000       3.43550000
H        2.47810000      -1.31510000       3.64640000
H        1.38730000      -2.47030000       4.44050000
H        2.20060000      -2.29620000       0.22580000
