18
Properties=species:S:1:pos:R:3 gdb_32852=T pbc="F F F"
C       -0.12640000       1.44440000       0.02810000
C        0.22600000      -0.03610000      -0.06730000
N        0.69790000      -0.53060000       1.22180000
C        0.88560000      -1.86340000       1.44710000
N        1.62940000      -2.40040000       2.37330000
C        1.41210000      -3.76520000       2.22050000
N        2.11190000      -4.65730000       3.02630000
C        0.54590000      -3.98470000       1.20100000
O        0.20160000      -2.72870000       0.68350000
H        0.74970000       2.04420000       0.30070000
H       -0.49050000       1.81110000      -0.93550000
H       -0.90100000       1.61260000       0.78160000
H       -0.65710000      -0.61870000      -0.34210000
H        0.97230000      -0.19710000      -0.86090000
H        1.39440000       0.03420000       1.68580000
H        2.36680000      -4.23240000       3.90800000
H        1.63670000      -5.53680000       3.17320000
H        0.11320000      -4.83820000       0.71410000
