20
Properties=species:S:1:pos:R:3 gdb_81174=T pbc="F F F"
C       -0.23290000       1.58790000      -0.17780000
C       -0.02590000       0.08600000      -0.06680000
C        1.21990000      -0.63530000      -0.68190000
C        2.09730000      -0.07110000       0.47550000
C        0.76520000      -0.57060000       1.11440000
C        0.89340000      -1.84030000       0.25150000
O        0.39610000      -0.61600000       2.46140000
C        0.67420000       0.45990000       3.22810000
N        0.25300000       0.50830000       4.41680000
H        0.67600000       2.17130000      -0.00810000
H       -0.60530000       1.84640000      -1.17490000
H       -0.98430000       1.92370000       0.54530000
H       -0.96550000      -0.43630000      -0.27880000
H        1.49100000      -0.68170000      -1.73350000
H        2.99150000      -0.64600000       0.72770000
H        2.30520000       0.99890000       0.47150000
H       -0.03030000      -2.38640000       0.04690000
H        1.72240000      -2.50890000       0.49360000
H        1.28250000       1.21650000       2.71840000
H        0.56750000       1.37010000       4.85820000
