20
Properties=species:S:1:pos:R:3 gdb_113178=T pbc="F F F"
C       -0.06080000       1.03150000       0.55680000
O       -0.18460000       0.01070000      -0.41720000
C       -1.37840000      -0.68840000      -0.31960000
C       -1.46680000      -1.98490000      -1.02720000
C       -1.42450000      -1.99020000       0.50370000
C       -0.15210000      -2.46300000       1.17650000
C       -2.75670000      -2.23360000       1.15060000
N       -2.73850000      -2.87320000       2.36110000
O       -3.80110000      -1.85100000       0.64590000
H        0.88990000       1.53660000       0.37220000
H       -0.87730000       1.76310000       0.47440000
H       -0.06120000       0.62460000       1.57750000
H       -2.27880000      -0.07810000      -0.26750000
H       -2.41180000      -2.24100000      -1.49020000
H       -0.57120000      -2.33380000      -1.52970000
H        0.71780000      -2.06690000       0.64840000
H       -0.08780000      -2.11540000       2.21410000
H       -0.07280000      -3.55690000       1.17570000
H       -1.92500000      -3.36110000       2.69120000
H       -3.63280000      -3.12950000       2.74740000
