21
Properties=species:S:1:pos:R:3 gdb_89796=T pbc="F F F"
C        0.00010000       1.58620000      -0.01020000
C        0.05610000       0.06420000       0.00450000
C        0.69730000      -0.58510000      -1.24730000
C        1.26720000      -1.89260000      -0.70450000
C        0.80870000      -3.21670000      -1.19500000
N        2.18270000      -2.74760000      -1.46810000
C        1.54100000      -1.63970000       0.75480000
C        2.24470000      -0.37690000       1.09590000
N        0.77900000      -0.45640000       1.19510000
H        1.00140000       2.01960000      -0.10760000
H       -0.60370000       1.94290000      -0.85080000
H       -0.44370000       1.96200000       0.91590000
H       -0.96550000      -0.32330000       0.10560000
H       -0.02560000      -0.73730000      -2.05300000
H        1.50030000       0.04680000      -1.64730000
H        0.74530000      -4.06100000      -0.51280000
H        0.08940000      -3.23900000      -2.01020000
H        2.24940000      -2.41340000      -2.42690000
H        1.57750000      -2.49100000       1.42840000
H        2.75300000      -0.28580000       2.05110000
H        2.70040000       0.19440000       0.29150000
