19
Properties=species:S:1:pos:R:3 gdb_87756=T pbc="F F F"
C        0.10460000       1.49620000      -0.28590000
C        0.03390000       0.01600000      -0.02160000
O        1.28490000      -0.70200000       0.00020000
C        0.54650000      -0.61260000       1.19990000
C        1.03470000       0.03940000       2.49480000
C        0.09870000      -0.94660000       3.27470000
C       -0.01520000      -1.80770000       1.97040000
C        0.70640000      -1.63140000       4.46530000
O        0.22500000      -1.67350000       5.56770000
H        0.90100000       1.96360000       0.29870000
H        0.30400000       1.68640000      -1.34550000
H       -0.84650000       1.97710000      -0.03230000
H       -0.75720000      -0.51520000      -0.55520000
H        2.09350000      -0.17800000       2.67310000
H        0.86140000       1.10700000       2.64350000
H       -0.84860000      -0.48880000       3.56260000
H       -1.00630000      -2.18150000       1.70590000
H        0.69310000      -2.64370000       1.97370000
H        1.68520000      -2.12400000       4.24480000
