16
Properties=species:S:1:pos:R:3 gdb_19270=T pbc="F F F"
C       -0.22500000       1.28570000      -0.03890000
O        0.35360000       0.00570000       0.15440000
C        0.77900000      -0.58830000      -1.03880000
C        1.37190000      -1.98750000      -0.89060000
C        0.33280000      -2.91760000      -0.38000000
C        0.31200000      -2.57630000      -1.86780000
C       -0.27010000      -1.20820000      -2.02970000
O       -1.09990000      -0.72490000      -2.74900000
H        0.49970000       1.98830000      -0.47850000
H       -1.10470000       1.23980000      -0.69240000
H       -0.52220000       1.65230000       0.94600000
H        1.43610000       0.08800000      -1.61200000
H        2.42920000      -2.21410000      -0.87770000
H        0.65710000      -3.93130000      -0.17000000
H       -0.44830000      -2.54900000       0.27530000
H        0.41160000      -3.34180000      -2.62660000
