17
Properties=species:S:1:pos:R:3 gdb_75789=T pbc="F F F"
C       -0.64570000       1.15660000       0.00530000
C        0.13470000      -0.14520000      -0.04630000
C        1.44900000      -0.21180000      -0.84050000
O        1.82210000       0.30260000      -1.85230000
C        2.12860000      -1.05730000       0.24400000
C        0.97460000      -0.62840000       1.20470000
O        1.27470000       0.48340000       2.01930000
C        0.32400000      -1.74170000       2.00020000
O        0.16710000      -2.86210000       1.58580000
H       -0.03980000       1.95430000       0.43880000
H       -0.92860000       1.45060000      -1.00970000
H       -1.55840000       1.05390000       0.59920000
H       -0.49490000      -0.98350000      -0.37100000
H        2.07230000      -2.12770000       0.02130000
H        3.14700000      -0.78490000       0.53120000
H        2.04180000       0.27240000       2.56200000
H       -0.01650000      -1.42890000       3.01320000
