23
Properties=species:S:1:pos:R:3 gdb_115446=T pbc="F F F"
C       -0.05130000       1.60510000       0.00450000
C       -0.03040000       0.07370000      -0.03390000
C        0.74950000      -0.51070000      -1.21590000
C        2.25930000      -0.20560000      -1.23110000
C        2.82940000      -1.25810000      -2.19030000
C        2.06330000      -2.55580000      -1.82210000
C        0.68000000      -2.06060000      -1.29380000
C        1.92080000      -3.47550000      -3.00890000
O        2.37990000      -4.58410000      -3.10160000
H        0.95710000       2.01910000       0.10530000
H       -0.48830000       2.01740000      -0.91210000
H       -0.64470000       1.97060000       0.84820000
H        0.40050000      -0.31330000       0.90000000
H       -1.06190000      -0.30020000      -0.06910000
H        0.32110000      -0.10210000      -2.14220000
H        2.49090000       0.81730000      -1.54100000
H        2.67950000      -0.34770000      -0.22600000
H        2.60160000      -0.97190000      -3.22620000
H        3.91270000      -1.38490000      -2.12070000
H        2.60240000      -3.10320000      -1.04470000
H        0.48740000      -2.49360000      -0.30740000
H       -0.14250000      -2.38660000      -1.94040000
H        1.32800000      -3.02830000      -3.84580000
