16
Properties=species:S:1:pos:R:3 gdb_127973=T pbc="F F F"
C       -0.07840000       1.42430000       0.00830000
N        0.00220000      -0.02570000       0.00320000
C       -1.06870000      -0.69290000       0.00950000
O       -2.30520000      -0.02840000       0.02140000
N       -3.51880000      -0.70400000       0.02840000
C       -3.46380000      -1.98930000       0.02380000
C       -4.75770000      -2.74610000       0.03110000
C       -2.18120000      -2.68590000       0.01180000
N       -1.05190000      -2.08250000       0.00500000
H        0.93340000       1.83510000       0.00100000
H       -0.61920000       1.80720000      -0.86740000
H       -0.60420000       1.80170000       0.89550000
H       -5.59880000      -2.05180000       0.03960000
H       -4.83480000      -3.38910000      -0.85280000
H       -4.82150000      -3.39460000       0.91210000
H       -2.17950000      -3.77640000       0.00830000
