17
Properties=species:S:1:pos:R:3 gdb_20141=T pbc="F F F"
C        0.14260000       1.49960000      -0.03500000
O        1.22960000       0.57520000      -0.06970000
C       -0.10660000       0.05250000      -0.02390000
C       -0.48940000      -0.67780000       1.23100000
C       -2.01770000      -0.97020000       1.49440000
C       -1.68470000      -2.46530000       1.52890000
N       -1.10470000      -2.77920000       0.20020000
C       -0.24620000      -2.19780000       1.26330000
H        0.04390000       2.07020000       0.88840000
H       -0.01800000       2.07110000      -0.94840000
H       -0.43170000      -0.42300000      -0.94820000
H       -0.03180000      -0.18490000       2.09280000
H       -2.35190000      -0.56960000       2.45330000
H       -2.71520000      -0.67080000       0.70770000
H       -2.15450000      -3.23850000       2.12370000
H       -0.91390000      -3.78050000       0.18090000
H        0.64290000      -2.71530000       1.60140000
