13
Properties=species:S:1:pos:R:3 gdb_4284=T pbc="F F F"
O        0.07610000       1.35380000       0.18540000
C       -0.00340000       0.00550000       0.06780000
C       -1.15730000      -0.67850000       0.05640000
C       -1.14560000      -2.13820000      -0.00500000
N       -2.23850000      -2.80500000      -0.02290000
N        0.12620000      -2.77490000      -0.05540000
C        1.18090000      -2.05550000      -0.04030000
N        1.20670000      -0.67620000      -0.01630000
H        0.74210000       1.69870000      -0.42210000
H       -2.10310000      -0.15620000       0.07740000
H       -2.00960000      -3.79940000      -0.07900000
H        2.16420000      -2.52290000      -0.05850000
H        2.05590000      -0.20210000       0.25020000
