22
Properties=species:S:1:pos:R:3 gdb_103946=T pbc="F F F"
C       -0.57520000       1.24130000       0.09900000
C       -0.07500000      -0.19890000       0.24920000
C        1.07990000      -0.36360000       1.24310000
O        2.21590000       0.39230000       0.86820000
C        0.64770000      -0.24390000       2.74960000
C        0.72420000      -1.77220000       2.83600000
C        0.78890000      -2.64230000       4.02450000
N       -0.40390000      -2.65440000       3.14540000
C        1.46060000      -1.84800000       1.49650000
H        0.20130000       1.89890000      -0.30890000
H       -1.42340000       1.28970000      -0.58980000
H       -0.90430000       1.66040000       1.05650000
H       -0.90080000      -0.84660000       0.56720000
H        0.26270000      -0.57480000      -0.72440000
H        1.95910000       1.31890000       0.81570000
H        1.42170000       0.25550000       3.33930000
H       -0.32310000       0.21660000       2.96120000
H        1.37840000      -3.55550000       4.00290000
H        0.70940000      -2.17960000       5.00570000
H       -1.15040000      -2.11870000       3.58370000
H        1.08860000      -2.58340000       0.77940000
H        2.54260000      -1.95310000       1.61020000
