15
Properties=species:S:1:pos:R:3 gdb_42592=T pbc="F F F"
O        0.04580000      -0.00090000       0.04480000
C       -0.01200000       1.19290000       0.00180000
C       -1.19280000       2.17160000       0.04350000
C       -0.86200000       2.99820000       1.30640000
C       -0.36140000       4.16280000       0.49580000
C        0.64920000       3.21050000       1.09120000
C        1.09510000       2.27340000      -0.05470000
O        0.67620000       2.94300000      -1.26040000
C       -0.60880000       3.37590000      -0.81020000
H       -2.19650000       1.80240000      -0.13690000
H       -1.34220000       2.95360000       2.27370000
H       -0.38770000       5.22900000       0.67370000
H        1.29630000       3.50330000       1.90450000
H        2.13170000       1.95670000      -0.11240000
H       -1.19010000       3.79580000      -1.62640000
