18
Properties=species:S:1:pos:R:3 gdb_53107=T pbc="F F F"
C       -0.01880000       1.53720000      -0.26720000
C       -0.03090000       0.08520000      -0.18770000
C       -0.04830000      -1.11640000      -0.10160000
C       -0.05000000      -2.55020000      -0.06450000
C       -0.41230000      -3.32330000       1.20920000
C       -0.71060000      -2.58620000       2.46680000
O       -1.39380000      -1.59540000       2.57620000
N       -1.26740000      -3.33680000       0.02070000
C       -2.56900000      -2.66850000       0.02880000
H        0.99660000       1.93150000      -0.15050000
H       -0.40270000       1.88690000      -1.23190000
H       -0.64050000       1.97640000       0.52020000
H        0.72420000      -3.01940000      -0.67030000
H        0.11850000      -4.25950000       1.37570000
H       -0.22510000      -3.04430000       3.35830000
H       -2.58650000      -1.71760000       0.56640000
H       -2.86000000      -2.50660000      -1.01310000
H       -3.29430000      -3.34840000       0.48440000
