18
Properties=species:S:1:pos:R:3 gdb_67235=T pbc="F F F"
C       -0.15690000       1.56330000      -0.29060000
C       -0.04410000       0.09110000      -0.10940000
C       -0.09420000      -1.09930000      -1.02020000
C        1.28260000      -1.50570000      -0.53470000
N        1.06650000      -0.64970000       0.69930000
C       -0.04760000      -1.42390000       1.39440000
C       -0.41400000      -0.75340000       2.69600000
O       -0.77550000      -1.34420000       3.68060000
C       -0.97520000      -1.03390000       0.25220000
H        0.72730000       1.96900000      -0.79390000
H       -1.03330000       1.80020000      -0.90280000
H       -0.26500000       2.07980000       0.66920000
H       -0.54820000      -1.17280000      -2.00110000
H        1.50460000      -2.55800000      -0.32690000
H        2.08790000      -1.07130000      -1.13260000
H        0.16600000      -2.48160000       1.57720000
H       -0.33780000       0.35700000       2.67670000
H       -2.05640000      -1.06720000       0.19590000
