16
Properties=species:S:1:pos:R:3 gdb_17502=T pbc="F F F"
C       -0.05020000       1.49660000      -0.01350000
C        0.14250000       0.01820000      -0.00970000
O       -0.81480000      -0.83510000       0.63950000
C        0.57950000      -0.95310000       0.98860000
C        1.31910000      -1.80710000      -0.08640000
C        0.37230000      -2.24050000      -1.19260000
C        0.86460000      -0.82190000      -1.13940000
O        1.64250000      -0.22030000      -2.11050000
H        0.87010000       1.99490000      -0.33240000
H       -0.84760000       1.78620000      -0.70790000
H       -0.32180000       1.85040000       0.98440000
H        0.84060000      -0.84610000       2.03500000
H        2.29660000      -2.24730000       0.05450000
H        0.85670000      -2.83570000      -1.96100000
H       -0.65710000      -2.49470000      -0.97320000
H        1.10270000      -0.10380000      -2.90060000
