19
Properties=species:S:1:pos:R:3 gdb_96992=T pbc="F F F"
C       -0.25300000       1.44480000      -0.12550000
N       -0.34560000       0.00370000      -0.31900000
C        0.56340000      -0.59030000      -0.93990000
O        1.71710000      -0.10360000      -1.54580000
C        2.02110000      -1.40410000      -2.13890000
C        2.99860000      -2.20530000      -1.26440000
C        1.79150000      -2.78930000      -0.46630000
C        0.78800000      -2.02420000      -1.38610000
N       -0.26410000      -2.80700000      -1.96070000
H        0.53740000       1.92260000      -0.71630000
H       -1.21430000       1.90230000      -0.38160000
H       -0.07020000       1.65790000       0.93420000
H        2.14220000      -1.33480000      -3.21940000
H        3.55070000      -2.96580000      -1.82110000
H        3.70500000      -1.58770000      -0.70700000
H        1.68670000      -3.86930000      -0.59200000
H        1.73130000      -2.54600000       0.59580000
H       -0.67280000      -3.41200000      -1.25530000
H       -1.01220000      -2.20960000      -2.29990000
