19
Properties=species:S:1:pos:R:3 gdb_24422=T pbc="F F F"
C       -0.01880000       1.51990000      -0.04600000
C        1.40760000       2.09500000       0.03180000
C        2.10590000       1.74840000       1.36300000
C        1.87870000       0.30440000       1.68540000
C        0.92350000      -0.46140000       1.06970000
C       -0.02850000      -0.02390000       0.00660000
N        1.04320000      -1.71270000       1.63970000
C        2.04960000      -1.63750000       2.56240000
N        2.57590000      -0.43630000       2.61710000
H       -0.60780000       1.90750000       0.79480000
H       -0.51420000       1.85850000      -0.96200000
H        1.99980000       1.69290000      -0.80070000
H        1.37650000       3.18150000      -0.10230000
H        3.17860000       1.96300000       1.30210000
H        1.71480000       2.38550000       2.16890000
H       -1.04660000      -0.38700000       0.19880000
H        0.26190000      -0.43230000      -0.97280000
H        0.49250000      -2.52610000       1.42150000
H        2.34730000      -2.48910000       3.15620000
