17
Properties=species:S:1:pos:R:3 gdb_85842=T pbc="F F F"
O        0.00420000       1.34130000      -0.25830000
C        0.04320000      -0.06670000      -0.06290000
C        0.27460000      -0.51960000       1.39640000
C       -1.26860000      -0.58320000       1.60910000
O       -1.66990000      -1.71960000       2.34180000
C       -1.81970000       0.65280000       2.15770000
C       -2.28870000       1.67350000       2.59130000
C       -1.39630000      -0.65050000       0.02580000
O       -2.40130000       0.03380000      -0.64360000
H       -0.29630000       1.75670000       0.55990000
H        0.70360000      -0.46460000      -0.83450000
H        0.68720000      -1.52960000       1.44980000
H        0.84560000       0.14620000       2.04540000
H       -2.62450000      -1.67440000       2.46800000
H       -2.70890000       2.56590000       2.98650000
H       -1.43150000      -1.71150000      -0.24310000
H       -2.05650000       0.92770000      -0.78560000
