18
Properties=species:S:1:pos:R:3 gdb_48703=T pbc="F F F"
O       -0.57590000       0.80920000       0.67000000
C        0.21240000       1.00060000      -0.22530000
C        1.38040000       1.89030000      -0.11500000
C        1.79500000       2.71290000       1.11490000
C        2.16670000       3.86960000       0.16170000
C        1.88470000       5.32420000       0.37340000
C        3.31270000       4.83960000       0.24190000
C        1.74880000       3.05050000      -1.04530000
N        2.44270000       1.78440000      -1.11800000
H        0.10680000       0.52480000      -1.22420000
H        0.94060000       2.94080000       1.75540000
H        2.59630000       2.27890000       1.72170000
H        1.46210000       5.88700000      -0.45310000
H        1.53540000       5.63960000       1.35100000
H        3.92760000       4.82260000       1.13600000
H        3.85310000       5.07970000      -0.66810000
H        1.22700000       3.40470000      -1.92800000
H        3.36760000       1.81630000      -0.69210000
