17
Properties=species:S:1:pos:R:3 gdb_122622=T pbc="F F F"
O       -0.07960000       1.33600000       0.33600000
C        0.04120000      -0.00340000      -0.09870000
C       -1.31130000      -0.68760000      -0.19730000
O       -2.07190000       0.05230000      -1.15790000
C       -3.39420000      -0.36960000      -1.27830000
C       -4.19490000       0.33500000      -2.38360000
O       -4.43810000      -0.95050000      -3.04300000
C       -3.65630000      -1.62880000      -2.14160000
O       -3.34740000      -2.77580000      -2.15300000
H       -0.71340000       1.75430000      -0.25750000
H        0.54920000      -0.06990000      -1.07360000
H        0.65880000      -0.52770000       0.63740000
H       -1.20880000      -1.73380000      -0.51260000
H       -1.82300000      -0.65860000       0.77670000
H       -3.90240000      -0.41730000      -0.30410000
H       -5.13330000       0.80990000      -2.09450000
H       -3.59210000       0.99040000      -3.01430000
