16
Properties=species:S:1:pos:R:3 gdb_4876=T pbc="F F F"
C       -0.18670000       1.54670000      -0.08490000
C        0.10340000       0.03940000       0.02370000
C        0.86450000      -0.50010000      -1.13090000
C        2.06520000      -1.07540000      -1.27040000
N        2.23200000      -1.36120000      -2.62560000
C        1.11770000      -0.95970000      -3.32770000
N        0.92540000      -1.06950000      -4.57600000
O        0.26270000      -0.41710000      -2.38650000
H        0.74340000       2.12170000      -0.11840000
H       -0.75190000       1.76640000      -0.99450000
H       -0.77270000       1.88860000       0.77320000
H        0.67730000      -0.17280000       0.93210000
H       -0.84620000      -0.50410000       0.11830000
H        2.81510000      -1.30740000      -0.53410000
H        3.01360000      -1.80920000      -3.06640000
H        0.01730000      -0.69350000      -4.83340000
