15
Properties=species:S:1:pos:R:3 gdb_132541=T pbc="F F F"
C       -0.03640000       1.52440000      -0.01660000
C       -0.00800000       0.01780000       0.00650000
C       -0.10190000      -0.72650000      -1.16580000
N       -0.08120000      -2.06900000      -1.19550000
C        0.03320000      -2.68740000      -0.05890000
F        0.05630000      -4.03370000      -0.06470000
C        0.13680000      -2.07180000       1.19560000
O        0.25350000      -2.79090000       2.33850000
C        0.11410000      -0.68740000       1.21160000
H        0.87970000       1.94800000       0.40950000
H       -0.13510000       1.89990000      -1.03830000
H       -0.87560000       1.91730000       0.56790000
H       -0.19810000      -0.23010000      -2.12720000
H        0.24800000      -3.72600000       2.09900000
H        0.19180000      -0.17110000       2.16290000
