13
Properties=species:S:1:pos:R:3 gdb_130080=T pbc="F F F"
N        0.05630000       1.28940000       0.15160000
C       -0.04560000      -0.06460000       0.05110000
N       -1.13760000      -0.77070000       0.01720000
N       -0.62710000      -2.06250000       0.01420000
C       -1.02970000      -3.38140000      -0.02840000
C        0.16230000      -4.07670000      -0.03780000
N        1.27600000      -3.24100000      -0.00740000
C        0.71880000      -2.06830000       0.02290000
O        1.13210000      -0.76170000       0.05230000
H        0.88680000       1.68880000      -0.26010000
H       -0.79680000       1.78230000      -0.06660000
H       -2.06190000      -3.68130000      -0.04340000
H        0.28770000      -5.14800000      -0.06220000
