15
Properties=species:S:1:pos:R:3 gdb_26457=T pbc="F F F"
O       -0.15900000       1.42790000       0.08020000
C        0.00470000       0.03690000       0.04860000
C        0.79660000      -0.36880000      -1.18960000
O        1.15460000       0.45220000      -1.99950000
C        0.71740000      -0.46690000       1.27320000
C        1.33620000       0.27360000       2.24490000
N        1.84330000      -0.65440000       3.12790000
C        1.51850000      -1.88960000       2.65520000
N        0.83760000      -1.81370000       1.53430000
H        0.25060000       1.74870000      -0.74020000
H       -0.97030000      -0.47810000      -0.02500000
H        1.02740000      -1.44550000      -1.28680000
H        1.43900000       1.33450000       2.38750000
H        2.34690000      -0.45230000       3.97530000
H        1.80040000      -2.79770000       3.16660000
