20
Properties=species:S:1:pos:R:3 gdb_107510=T pbc="F F F"
C       -0.25840000       1.52320000      -0.05750000
C        0.11610000       0.03910000       0.06250000
C        0.77590000      -0.50510000      -1.17470000
C        0.02240000      -0.98650000      -2.38460000
C        0.95150000      -1.93980000      -1.68350000
C        2.39510000      -1.66050000      -2.10650000
C        2.23910000      -0.18720000      -1.57410000
C        2.46290000       0.90500000      -2.51240000
N        2.62640000       1.76170000      -3.27230000
H        0.62290000       2.14250000      -0.25350000
H       -0.96270000       1.68440000      -0.87940000
H       -0.72230000       1.88500000       0.86490000
H        0.78110000      -0.10440000       0.92500000
H       -0.78380000      -0.55340000       0.26970000
H       -1.03550000      -1.16000000      -2.21370000
H        0.25690000      -0.61540000      -3.37960000
H        0.59970000      -2.86070000      -1.23450000
H        3.14400000      -2.21040000      -1.53450000
H        2.61490000      -1.76150000      -3.17270000
H        2.86390000      -0.02660000      -0.69130000
