17
Properties=species:S:1:pos:R:3 gdb_13800=T pbc="F F F"
C       -0.09420000       0.81170000      -0.38910000
O       -0.50180000      -0.27360000       0.43740000
C        0.47840000      -0.65700000       1.33890000
C        0.36570000      -2.04230000       1.88850000
C        1.49850000      -1.70470000       0.93600000
C        1.54860000      -2.18060000      -0.49640000
N        0.93420000      -3.36910000      -0.75320000
O        2.11730000      -1.54000000      -1.36240000
H        0.79370000       0.55140000      -0.97520000
H       -0.93010000       1.02700000      -1.05830000
H        0.11670000       1.70730000       0.21450000
H        0.82510000       0.13960000       1.99940000
H        0.59220000      -2.21930000       2.93390000
H       -0.46430000      -2.62160000       1.49730000
H        2.49170000      -1.58290000       1.35760000
H        0.58210000      -3.95430000      -0.01760000
H        0.99590000      -3.74090000      -1.68700000
