21
Properties=species:S:1:pos:R:3 gdb_72169=T pbc="F F F"
C        0.02410000       1.49090000      -0.09400000
C       -0.04700000      -0.00660000      -0.00080000
O        0.27910000      -0.71260000      -1.23010000
C       -0.36290000      -1.84640000      -0.57620000
C        0.68430000      -2.18180000       0.50220000
C        0.71630000      -0.76510000       1.14930000
C       -0.28240000      -0.74030000       2.31800000
C       -1.63840000      -1.09020000       1.62610000
C       -1.33700000      -0.85990000       0.14280000
H        1.04660000       1.80930000      -0.32440000
H       -0.63550000       1.86510000      -0.88200000
H       -0.26970000       1.95510000       0.85280000
H       -0.69560000      -2.62540000      -1.26300000
H        0.38650000      -2.96820000       1.20210000
H        1.62710000      -2.46470000       0.02980000
H        1.71100000      -0.38470000       1.38570000
H       -0.01360000      -1.44290000       3.11210000
H       -0.32790000       0.25580000       2.77280000
H       -1.94660000      -2.12210000       1.82450000
H       -2.45130000      -0.44760000       1.97600000
H       -2.16380000      -0.54910000      -0.49580000
