15
Properties=species:S:1:pos:R:3 gdb_75323=T pbc="F F F"
N        0.20680000       1.31470000      -0.28690000
C        0.06570000      -0.03340000      -0.13640000
N       -1.04660000      -0.67290000      -0.14080000
C       -0.78110000      -2.09880000       0.06190000
C        0.73420000      -2.27920000       0.10420000
O        1.38550000      -1.87020000      -1.08660000
C        1.29090000      -0.90610000      -0.01040000
C        2.59500000      -0.47420000       0.54210000
O        2.79990000       0.62660000       0.99980000
H        1.04790000       1.71060000       0.10840000
H       -0.63740000       1.85470000      -0.16760000
H       -1.23510000      -2.43860000       1.00160000
H       -1.22050000      -2.69690000      -0.74570000
H        1.22090000      -3.07620000       0.66160000
H        3.38970000      -1.24590000       0.47940000
