18
Properties=species:S:1:pos:R:3 gdb_16466=T pbc="F F F"
C        0.03370000       1.51180000      -0.10630000
C        0.02070000       0.01410000       0.03530000
O        0.41730000      -0.59620000      -1.18910000
C        0.35390000      -1.99730000      -0.89320000
C       -0.10120000      -1.95790000       0.55580000
C        0.65420000      -0.76590000       1.23700000
C       -0.60990000      -0.48230000       2.07970000
C       -1.15510000      -0.80380000       0.66980000
H        1.03730000       1.85770000      -0.37180000
H       -0.64970000       1.82210000      -0.90250000
H       -0.26840000       2.00360000       0.82120000
H       -0.36040000      -2.49440000      -1.56210000
H        1.34060000      -2.45870000      -1.02880000
H       -0.25260000      -2.88960000       1.10110000
H        1.69860000      -0.75220000       1.55400000
H       -0.83840000      -1.21480000       2.85780000
H       -0.74920000       0.53420000       2.45610000
H       -2.19320000      -0.83380000       0.33390000
