20
Properties=species:S:1:pos:R:3 gdb_15403=T pbc="F F F"
C       -0.18050000       1.55040000       0.07700000
C       -0.17520000       0.03010000      -0.10130000
C        0.89750000      -0.45170000      -1.08850000
C        0.90440000      -1.96100000      -1.23520000
C        0.06480000      -2.66280000      -2.24820000
C        1.58430000      -2.69410000      -2.39600000
C        2.20400000      -1.95900000      -3.51890000
O        3.21870000      -2.29870000      -4.07830000
H        0.78500000       1.90820000       0.45120000
H       -0.37520000       2.06040000      -0.87300000
H       -0.95080000       1.86560000       0.78740000
H       -0.01310000      -0.45410000       0.87080000
H       -1.16020000      -0.30740000      -0.44750000
H        0.72880000       0.02700000      -2.06040000
H        1.88440000      -0.11130000      -0.74770000
H        1.02740000      -2.48520000      -0.29000000
H       -0.42670000      -3.59530000      -1.99640000
H       -0.47760000      -2.04950000      -2.96240000
H        2.09580000      -3.61910000      -2.15280000
H        1.65260000      -1.04730000      -3.84500000
