21
Properties=species:S:1:pos:R:3 gdb_84780=T pbc="F F F"
C       -0.72610000       1.20140000       0.04780000
C        0.09920000      -0.08190000      -0.10510000
C        1.19720000      -0.00100000      -1.14310000
C        2.31260000      -0.61680000      -0.76230000
C        2.18440000      -1.22550000       0.60940000
C        0.88420000      -0.59370000       1.17690000
C        1.21880000       0.54740000       2.15490000
C        0.00580000      -1.59560000       1.90210000
O        0.20340000      -2.78080000       1.98910000
H       -0.10420000       2.06060000       0.31330000
H       -1.22400000       1.43460000      -0.89910000
H       -1.50640000       1.09630000       0.80850000
H       -0.60130000      -0.87420000      -0.41480000
H        1.03440000       0.47930000      -2.10250000
H        3.20890000      -0.71860000      -1.36410000
H        2.08880000      -2.31730000       0.56010000
H        3.04850000      -1.02000000       1.25200000
H        1.80410000       1.32230000       1.65150000
H        0.32130000       1.01510000       2.57090000
H        1.81560000       0.16600000       2.98980000
H       -0.90060000      -1.14020000       2.36840000
