17
Properties=species:S:1:pos:R:3 gdb_60675=T pbc="F F F"
C        0.00340000       1.52930000      -0.06680000
C       -0.07310000      -0.01300000       0.06180000
C        0.38780000      -0.34520000       1.50580000
O        1.45370000      -0.81300000       1.79790000
C       -1.48770000      -0.43590000      -0.01530000
N       -2.59290000      -0.77200000      -0.02940000
N        0.62180000      -0.61030000      -1.06940000
C        2.07890000      -0.72220000      -1.12460000
C        1.22050000      -1.93880000      -1.01200000
H        1.04830000       1.84110000       0.00620000
H       -0.39100000       1.82290000      -1.04100000
H       -0.57410000       2.02440000       0.71770000
H       -0.36540000      -0.07220000       2.27810000
H        2.51250000      -0.44380000      -2.08120000
H        2.66130000      -0.46140000      -0.24880000
H        1.24900000      -2.46380000      -0.06280000
H        1.02530000      -2.55980000      -1.88130000
