20
Properties=species:S:1:pos:R:3 gdb_86247=T pbc="F F F"
C        0.77090000       1.39860000      -0.36590000
C        0.05730000       0.10060000       0.03040000
C        0.11610000      -0.99790000      -1.05340000
C        1.37010000      -1.81410000      -0.71540000
O        2.48520000      -1.13840000      -1.28710000
C        1.39470000      -1.80010000       0.82080000
N        0.69500000      -0.56830000       1.17800000
C        0.56060000      -0.18910000       2.47040000
O        1.04660000      -0.77910000       3.41660000
H        1.80230000       1.19130000      -0.65710000
H        0.25600000       1.86910000      -1.21040000
H        0.77200000       2.10960000       0.46610000
H       -0.98410000       0.33040000       0.28380000
H       -0.76390000      -1.64440000      -0.98350000
H        0.16770000      -0.59260000      -2.06560000
H        1.30870000      -2.84050000      -1.10070000
H        3.28920000      -1.56530000      -0.97430000
H        0.87740000      -2.67180000       1.24190000
H        2.41310000      -1.80590000       1.22370000
H       -0.05090000       0.72910000       2.57980000
