16
Properties=species:S:1:pos:R:3 gdb_44159=T pbc="F F F"
O        0.21810000       0.03710000       0.07990000
C        0.12480000       1.22880000       0.13310000
C       -1.09250000       2.19370000       0.11220000
C       -0.08810000       3.34260000      -0.06230000
C        0.87690000       3.40960000       1.06790000
C        0.53920000       3.10760000       2.52670000
C        1.74330000       2.86170000       3.32070000
N        2.70480000       2.68480000       3.93610000
C        1.11670000       2.35110000       0.00080000
H       -1.68770000       2.00220000      -0.78520000
H       -1.76140000       2.21870000       0.97690000
H       -0.20800000       4.16000000      -0.76110000
H        1.59220000       4.22310000       0.97420000
H        0.00520000       3.95840000       2.96690000
H       -0.11950000       2.23940000       2.61940000
H        2.04500000       2.32160000      -0.55580000
