20
Properties=species:S:1:pos:R:3 gdb_82501=T pbc="F F F"
C       -0.01210000       1.48710000      -0.14780000
N       -0.01110000       0.03170000      -0.04010000
C       -1.23110000      -0.53060000       0.64270000
C       -0.94870000      -2.02980000       0.47070000
C        0.30810000      -1.97950000       1.37180000
C        1.28580000      -3.11490000       1.42780000
O       -0.31330000      -1.63670000       2.65880000
C       -0.52890000      -0.34990000       2.08490000
C        0.69950000      -0.44770000       1.16670000
H        0.97880000       1.82540000      -0.46870000
H       -0.73260000       1.78920000      -0.91450000
H       -0.26410000       2.02130000       0.78540000
H       -2.19970000      -0.11490000       0.36850000
H       -1.69590000      -2.69700000       0.90480000
H       -0.75720000      -2.27540000      -0.57480000
H        1.74450000      -3.26420000       0.44550000
H        2.07650000      -2.91450000       2.15650000
H        0.78160000      -4.04360000       1.71530000
H       -0.81690000       0.43260000       2.78410000
H        1.71350000      -0.11110000       1.38200000
