17
Properties=species:S:1:pos:R:3 gdb_7471=T pbc="F F F"
C       -0.08930000       1.64900000       0.11500000
C        0.02100000       0.13310000       0.03400000
C       -1.34350000      -0.54170000      -0.22120000
C       -1.93630000      -0.15270000      -1.50010000
N       -2.38070000       0.16760000      -2.51780000
C        1.13920000      -0.46250000      -0.85990000
O        1.60740000      -1.29900000       0.21820000
C        0.78880000      -0.59240000       1.16870000
H        0.89010000       2.10050000       0.29760000
H       -0.48800000       2.06720000      -0.81480000
H       -0.75650000       1.95250000       0.93000000
H       -1.22320000      -1.63090000      -0.21240000
H       -2.04540000      -0.28870000       0.58240000
H        0.82570000      -1.04450000      -1.73370000
H        1.89660000       0.26990000      -1.16940000
H        1.38080000       0.08220000       1.80210000
H        0.21430000      -1.27200000       1.81000000
