16
Properties=species:S:1:pos:R:3 gdb_132531=T pbc="F F F"
C       -0.01380000       1.49490000       0.02430000
C        0.00000000      -0.00620000      -0.01200000
N       -0.12330000      -0.61140000      -1.19300000
C       -0.10650000      -1.94990000      -1.18420000
C        0.02950000      -2.71840000      -0.03600000
C        0.04950000      -4.21890000      -0.01580000
C        0.14850000      -1.94660000       1.12310000
F        0.28430000      -2.58000000       2.28460000
N        0.13790000      -0.64060000       1.16740000
H        0.91520000       1.87160000       0.46410000
H       -0.13050000       1.89520000      -0.98260000
H       -0.83200000       1.85090000       0.65830000
H       -0.20760000      -2.43960000      -2.15140000
H        0.98540000      -4.59930000       0.40640000
H       -0.76270000      -4.62000000       0.59940000
H       -0.05740000      -4.62060000      -1.02670000
