18
Properties=species:S:1:pos:R:3 gdb_40613=T pbc="F F F"
C       -0.22640000       1.61140000       0.11140000
O        0.99900000       0.93910000      -0.16880000
C       -0.18930000       0.15230000      -0.06920000
C       -0.35440000      -0.76210000       1.11820000
C       -0.22610000      -2.23500000       1.22350000
C        0.94750000      -2.92930000       0.51200000
C        1.83500000      -1.99130000      -0.25950000
C        1.85110000      -1.96100000       1.24080000
N        0.69780000      -1.32440000       2.00100000
H       -0.31140000       2.01820000       1.11850000
H       -0.60920000       2.24820000      -0.68510000
H       -0.54020000      -0.24360000      -1.02310000
H       -1.14950000      -0.40170000       1.77270000
H       -0.97820000      -2.81850000       1.74800000
H        1.01300000      -4.00620000       0.43590000
H        2.71510000      -2.48940000      -0.65910000
H        1.48740000      -1.18330000      -0.88420000
H        2.74760000      -2.13060000       1.82230000
