14
Properties=species:S:1:pos:R:3 gdb_29217=T pbc="F F F"
N        0.07340000       1.45920000       0.19660000
C        0.00770000       0.06230000       0.07120000
C       -1.13390000      -0.67400000       0.00880000
N       -1.07080000      -2.03790000      -0.03710000
C        0.12300000      -2.78290000      -0.02290000
O        0.08720000      -3.99490000      -0.06230000
N        1.27760000      -2.02160000       0.03280000
C        1.20870000      -0.72720000       0.07600000
O        2.35520000      -0.02360000       0.11960000
H        0.96380000       1.82490000      -0.11300000
H       -0.68560000       1.94470000      -0.26270000
H       -2.12280000      -0.23120000      -0.00450000
H       -1.91510000      -2.58770000      -0.08410000
H        3.07060000      -0.67730000       0.10710000
