19
Properties=species:S:1:pos:R:3 gdb_87039=T pbc="F F F"
C       -0.15590000       1.49530000       0.01280000
C        0.01180000      -0.00480000       0.06500000
C        1.33160000      -0.65550000      -0.21620000
C        0.77260000      -0.68790000       1.20740000
C        1.40840000       0.12920000       2.20440000
C        1.94680000       0.80630000       3.04080000
C        0.22490000      -2.00880000       1.67690000
C        0.68420000      -2.69630000       2.88860000
O       -0.57500000      -2.01430000       2.85570000
H        0.73650000       2.00700000       0.38180000
H       -0.33850000       1.82530000      -1.01550000
H       -1.00260000       1.81780000       0.62730000
H       -0.86220000      -0.56530000      -0.25790000
H        1.35640000      -1.59440000      -0.75980000
H        2.19100000      -0.01570000      -0.38070000
H        2.41300000       1.40680000       3.78200000
H       -0.17510000      -2.61920000       0.86420000
H        0.62710000      -3.78260000       2.94610000
H        1.44590000      -2.22700000       3.50690000
