21
Properties=species:S:1:pos:R:3 gdb_50661=T pbc="F F F"
O       -0.05970000      -0.06650000       0.06260000
C        0.03310000       1.13150000      -0.01720000
C        1.32300000       1.91720000       0.03530000
C        1.45850000       2.86940000      -1.18690000
C        2.02130000       4.18450000      -0.61810000
C        1.32480000       4.29440000       0.74510000
C        1.35070000       2.85980000       1.26740000
C        0.71300000       2.48520000       2.58380000
C        2.21430000       2.50140000       2.45320000
H       -0.87620000       1.77120000      -0.12600000
H        2.14430000       1.19700000       0.07710000
H        2.07270000       2.43400000      -1.97840000
H        0.46570000       3.05660000      -1.61760000
H        3.10530000       4.10070000      -0.47760000
H        1.83730000       5.04130000      -1.27210000
H        1.80750000       4.99810000       1.42950000
H        0.28940000       4.63350000       0.60640000
H        0.23680000       3.27490000       3.15610000
H        0.22380000       1.52020000       2.66820000
H        2.73180000       1.54750000       2.43910000
H        2.76430000       3.30120000       2.93910000
