18
Properties=species:S:1:pos:R:3 gdb_59010=T pbc="F F F"
C       -0.01940000       1.59920000       0.66130000
C       -0.13980000       0.23250000      -0.01860000
C        0.85450000      -0.79610000       0.55860000
C       -1.53800000      -0.29660000       0.06400000
N       -2.51940000       0.17400000       0.71910000
C       -3.64070000      -0.72110000       0.46610000
C       -3.09690000      -1.79580000      -0.46780000
O       -3.60200000      -2.74950000      -0.96870000
O       -1.76460000      -1.45340000      -0.67140000
H        0.99940000       1.98120000       0.54940000
H       -0.71350000       2.32270000       0.22750000
H       -0.24570000       1.52340000       1.72830000
H        0.08080000       0.33880000      -1.08980000
H        0.75550000      -1.76590000       0.06550000
H        1.87920000      -0.44080000       0.41960000
H        0.68610000      -0.93480000       1.63160000
H       -4.01700000      -1.17050000       1.39160000
H       -4.48130000      -0.19560000       0.00020000
