15
Properties=species:S:1:pos:R:3 gdb_127919=T pbc="F F F"
C        0.11580000       1.42200000       0.14390000
N        0.14460000      -0.02710000       0.11630000
C        0.47090000      -0.60480000      -0.96590000
N        0.81480000       0.02600000      -2.16650000
C        1.16060000      -0.65320000      -3.31090000
N        1.20800000      -1.92900000      -3.41050000
N        0.88130000      -2.61150000      -2.26560000
C        0.51150000      -2.11400000      -1.03160000
O        0.24920000      -2.84010000      -0.10180000
H        1.10120000       1.86600000      -0.07360000
H       -0.60480000       1.84190000      -0.57730000
H       -0.18270000       1.75930000       1.13850000
H        0.80770000       1.03420000      -2.19040000
H        1.40720000      -0.05430000      -4.17890000
H        0.91980000      -3.61720000      -2.34740000
