22
Properties=species:S:1:pos:R:3 gdb_70152=T pbc="F F F"
C       -0.40150000       1.58610000       0.62330000
C       -0.09410000       0.16740000       0.17500000
C       -1.27150000      -0.48150000      -0.54010000
C       -1.10080000      -1.89210000      -1.10910000
C       -1.03770000      -3.01440000      -0.06580000
C        0.18570000      -3.05550000       0.81000000
C        0.96610000      -2.05420000       1.22600000
C        0.90380000      -0.59230000       0.98200000
N        1.27960000       0.01320000      -0.33890000
H        0.47900000       2.04530000       1.07840000
H       -0.69900000       2.20550000      -0.23040000
H       -1.21970000       1.59890000       1.35230000
H       -2.12950000      -0.47900000       0.14660000
H       -1.55140000       0.19030000      -1.36330000
H       -1.95600000      -2.08720000      -1.76690000
H       -0.21590000      -1.94540000      -1.75630000
H       -1.93520000      -2.95970000       0.57060000
H       -1.11620000      -3.97830000      -0.58370000
H        0.45620000      -4.05160000       1.15650000
H        1.79970000      -2.33130000       1.86990000
H        1.35660000      -0.03210000       1.79920000
H        1.30570000      -0.74190000      -1.02170000
