17
Properties=species:S:1:pos:R:3 gdb_78203=T pbc="F F F"
O       -0.17380000       1.40310000       0.02350000
C       -0.06680000       0.00690000       0.06270000
C       -0.43570000      -0.80550000       1.27190000
C       -1.30260000      -0.82060000      -0.00310000
C       -2.46220000      -0.12580000       0.74870000
C       -3.63400000      -0.96210000       0.89870000
C       -4.57490000      -1.69420000       1.06750000
C       -1.55680000      -0.09950000       2.05800000
O       -2.05010000      -0.78240000       3.17190000
H        0.53300000       1.77320000       0.56280000
H        0.76570000      -0.39660000      -0.51500000
H        0.21050000      -1.56840000       1.69070000
H       -1.44720000      -1.59730000      -0.74390000
H       -2.73080000       0.86020000       0.36010000
H       -5.42880000      -2.31440000       1.18810000
H       -1.30960000       0.91110000       2.39260000
H       -2.60970000      -1.50670000       2.86060000
