20
Properties=species:S:1:pos:R:3 gdb_106505=T pbc="F F F"
C        0.02960000       1.54280000      -0.16530000
C       -0.02340000       0.04410000       0.14640000
C       -1.41960000      -0.53780000       0.04230000
C       -2.16770000      -0.59740000      -1.33250000
C       -2.91210000      -1.80850000      -0.72370000
C       -1.64160000      -2.08370000       0.11370000
O       -3.96150000      -1.33230000       0.14710000
C       -3.51390000      -0.36530000       0.98390000
N       -2.33130000       0.08830000       1.02120000
H        1.04340000       1.93450000      -0.03970000
H       -0.28000000       1.74600000      -1.19650000
H       -0.63870000       2.09360000       0.50180000
H        0.63820000      -0.50830000      -0.53290000
H        0.34520000      -0.13370000       1.16450000
H       -2.76060000       0.26850000      -1.63290000
H       -1.50800000      -0.91250000      -2.14430000
H       -3.36110000      -2.57720000      -1.35060000
H       -0.89940000      -2.63210000      -0.47110000
H       -1.76470000      -2.53600000       1.09990000
H       -4.30130000      -0.00940000       1.64360000
