20
Properties=species:S:1:pos:R:3 gdb_101502=T pbc="F F F"
C        0.36210000       1.55950000       0.22840000
C        0.02530000       0.13320000      -0.22010000
C        0.89750000      -0.39660000      -1.37290000
C        0.67680000      -1.89900000      -1.60420000
N        0.77560000       0.27610000      -2.67050000
C       -0.23980000       0.94430000      -2.97470000
O       -0.40520000       1.54320000      -4.20190000
C        0.33650000       1.09890000      -5.26920000
O        0.31310000       1.67680000      -6.30990000
H        1.40710000       1.62920000       0.54860000
H        0.21780000       2.29200000      -0.57090000
H       -0.26500000       1.86190000       1.07240000
H        0.16810000      -0.54840000       0.62680000
H       -1.03810000       0.05040000      -0.48080000
H        1.94770000      -0.25890000      -1.08170000
H        1.29870000      -2.25690000      -2.42850000
H        0.92940000      -2.46740000      -0.70430000
H       -0.37040000      -2.10050000      -1.85550000
H       -1.10790000       1.17820000      -2.35630000
H        0.89800000       0.18490000      -5.03810000
