20
Properties=species:S:1:pos:R:3 gdb_118370=T pbc="F F F"
C       -0.01840000       1.60230000       0.02830000
C        0.01360000       0.07230000      -0.01610000
C       -1.38810000      -0.54510000       0.01280000
C       -1.39690000      -2.08970000      -0.01190000
C       -2.83940000      -2.65150000       0.13160000
C       -2.88830000      -4.10130000       0.25380000
C       -2.90280000      -5.29750000       0.36290000
C       -0.76610000      -2.59580000      -1.23570000
N       -0.27200000      -2.96550000      -2.21300000
H        0.99310000       2.01810000       0.00870000
H       -0.56310000       2.01160000      -0.82940000
H       -0.51060000       1.96500000       0.93760000
H        0.53780000      -0.26050000      -0.91930000
H        0.59340000      -0.30910000       0.83470000
H       -1.91260000      -0.22750000       0.92280000
H       -1.97690000      -0.17320000      -0.83510000
H       -0.80600000      -2.46150000       0.83420000
H       -3.28850000      -2.18800000       1.01820000
H       -3.43610000      -2.32510000      -0.72850000
H       -2.92300000      -6.35580000       0.44740000
