19
Properties=species:S:1:pos:R:3 gdb_53728=T pbc="F F F"
C        0.65860000       1.27020000       0.11690000
C       -0.22700000       0.04660000       0.00100000
O       -0.95750000      -0.32860000       0.89380000
C       -0.14680000      -0.66070000      -1.26350000
C       -0.07020000      -1.23900000      -2.32000000
C       -0.02740000      -1.99060000      -3.57830000
C        0.44840000      -3.43020000      -3.29850000
C       -1.42630000      -1.98370000      -4.22630000
O        0.91160000      -1.31480000      -4.42200000
H        1.70750000       0.98990000      -0.02810000
H        0.41040000       1.98970000      -0.67080000
H        0.52410000       1.72670000       1.09860000
H       -0.22690000      -3.94350000      -2.60920000
H        0.47660000      -3.99520000      -4.23730000
H        1.45160000      -3.41600000      -2.86750000
H       -1.73330000      -0.95860000      -4.44380000
H       -1.39760000      -2.54920000      -5.16480000
H       -2.16890000      -2.44500000      -3.57020000
H        0.94610000      -1.80260000      -5.25270000
