23
Properties=species:S:1:pos:R:3 gdb_95953=T pbc="F F F"
C        0.29850000       1.68080000      -0.35330000
C        0.02150000       0.22130000       0.02700000
C        0.57750000      -0.76780000      -1.01800000
C        2.04580000      -0.92950000      -0.58300000
O        2.10450000      -0.54330000       0.79190000
C        0.80160000      -0.24610000       1.27240000
C        0.79140000       0.63640000       2.54240000
C       -0.30380000      -0.28620000       3.14190000
C        0.08620000      -1.36510000       2.09740000
H        1.37340000       1.87630000      -0.42450000
H       -0.15310000       1.91880000      -1.32190000
H       -0.11630000       2.37630000       0.38200000
H       -1.05530000       0.08170000       0.16590000
H        0.05240000      -1.72550000      -0.95020000
H        0.47850000      -0.40640000      -2.04470000
H        2.40050000      -1.96150000      -0.69590000
H        2.72090000      -0.28070000      -1.15540000
H        1.74420000       0.52580000       3.06660000
H        0.57410000       1.70080000       2.43140000
H       -0.20880000      -0.55330000       4.19600000
H       -1.31050000       0.10700000       2.97490000
H       -0.71640000      -1.92750000       1.61110000
H        0.82620000      -2.06570000       2.49280000
