22
Properties=species:S:1:pos:R:3 gdb_96669=T pbc="F F F"
C       -0.06730000       1.06710000      -0.84620000
N       -0.03410000      -0.28570000      -0.33480000
C       -1.02360000      -0.75830000       0.29490000
C       -2.34710000      -0.10800000       0.63180000
O       -0.99050000      -2.02370000       0.79560000
C        0.19250000      -2.76210000       0.58250000
C        0.08010000      -4.22940000       0.85270000
C        0.25490000      -3.72540000      -0.57030000
C       -0.88090000      -3.82970000      -1.56220000
H        0.76860000       1.63710000      -0.42270000
H        0.08600000       1.04990000      -1.93210000
H       -0.99160000       1.62620000      -0.64450000
H       -2.85890000       0.22700000      -0.27480000
H       -2.98620000      -0.81750000       1.15690000
H       -2.19870000       0.76880000       1.26920000
H        1.08900000      -2.21890000       0.85750000
H        0.90220000      -4.73060000       1.35150000
H       -0.90500000      -4.59550000       1.12340000
H        1.24540000      -3.84990000      -1.00020000
H       -1.84430000      -3.65550000      -1.07530000
H       -0.77170000      -3.08870000      -2.36120000
H       -0.91080000      -4.82270000      -2.02340000
