19
Properties=species:S:1:pos:R:3 gdb_126392=T pbc="F F F"
C        0.12450000       1.36140000      -0.49900000
C       -0.12660000       0.10830000       0.35610000
C       -1.49160000      -0.47950000       0.15800000
N       -2.39380000      -0.42550000       1.13270000
N       -3.50370000      -1.03400000       0.62540000
C       -4.71650000      -1.12300000       1.40490000
C       -3.30040000      -1.44960000      -0.64410000
O       -4.31290000      -2.07030000      -1.29410000
C       -2.00880000      -1.11810000      -0.99810000
H        1.13020000       1.75740000      -0.32550000
H        0.03030000       1.13970000      -1.56700000
H       -0.59820000       2.14670000      -0.25750000
H        0.63610000      -0.64580000       0.12350000
H       -0.01900000       0.35400000       1.41690000
H       -5.27130000      -0.17840000       1.38900000
H       -5.34650000      -1.91300000       0.99390000
H       -4.45350000      -1.36040000       2.43720000
H       -3.99500000      -2.34920000      -2.15800000
H       -1.51600000      -1.31490000      -1.93680000
