19
Properties=species:S:1:pos:R:3 gdb_69381=T pbc="F F F"
C       -0.02080000       1.51210000       0.03250000
C        0.05100000       0.00420000       0.00810000
C       -0.83420000      -0.80410000       0.92120000
C        0.66740000      -0.81300000       1.14030000
C        1.38670000      -1.93870000       0.47850000
C        2.15480000      -2.96170000       1.19190000
O        2.31270000      -2.98750000       2.39280000
C        1.24500000      -1.89380000      -0.85830000
C        0.46560000      -0.68200000      -1.30280000
H        0.92570000       1.96130000      -0.29010000
H       -0.80890000       1.88360000      -0.63360000
H       -0.23950000       1.88180000       1.03900000
H       -1.43360000      -0.24960000       1.63630000
H       -1.29960000      -1.71350000       0.55290000
H        1.07620000      -0.36930000       2.04000000
H        2.61230000      -3.73470000       0.53390000
H        1.63650000      -2.63500000      -1.54760000
H       -0.39380000      -0.94980000      -1.93160000
H        1.09630000      -0.02400000      -1.91850000
