15
Properties=species:S:1:pos:R:3 gdb_18443=T pbc="F F F"
O        0.04420000       1.42220000      -0.19270000
C        0.01640000       0.02880000      -0.01830000
C        0.23330000      -0.61790000       1.38270000
N       -1.07990000      -1.35640000       1.28410000
C       -2.13830000      -0.31020000       1.24550000
C       -2.08980000       0.89720000       2.02160000
C       -2.11000000       1.87450000       2.72190000
C       -1.36950000      -0.58810000       0.00250000
H        0.96300000       1.70700000      -0.22620000
H        0.63760000      -0.47850000      -0.76870000
H        1.05730000      -1.33180000       1.43020000
H        0.28450000       0.07620000       2.22480000
H       -3.11780000      -0.78420000       1.25030000
H       -2.11570000       2.75540000       3.31480000
H       -1.85780000      -1.05340000      -0.84830000
