21
Properties=species:S:1:pos:R:3 gdb_75147=T pbc="F F F"
C        0.60590000       1.42140000       0.12420000
C        0.12460000       0.01120000      -0.00970000
C        0.20590000      -0.77720000      -1.08300000
C       -0.43060000      -2.12510000      -0.87000000
C       -0.62850000      -2.19190000       0.68560000
C        0.56010000      -2.94520000       1.32300000
C       -0.59220000      -0.68910000       1.12380000
C       -1.88020000      -2.84650000       1.05610000
C       -2.90770000      -3.39030000       1.36520000
H        1.33060000       1.51840000       0.94280000
H        1.08080000       1.77480000      -0.79510000
H       -0.22210000       2.10160000       0.36250000
H        0.64700000      -0.48540000      -2.03070000
H       -1.39250000      -2.19950000      -1.39290000
H        0.18280000      -2.96070000      -1.22660000
H        1.50030000      -2.45890000       1.04380000
H        0.47870000      -2.94810000       2.41370000
H        0.58990000      -3.98340000       0.98060000
H       -0.08900000      -0.56730000       2.09090000
H       -1.60580000      -0.28700000       1.24910000
H       -3.81660000      -3.86780000       1.63550000
