9
Properties=species:S:1:pos:R:3 gdb_130574=T pbc="F F F"
O       -0.01280000      -0.03650000       0.00320000
C       -0.04020000       1.16610000       0.00670000
C        1.18890000       1.97180000       0.00060000
N        2.17640000       2.57190000      -0.00440000
C       -1.30270000       1.94110000       0.01700000
N       -1.37880000       3.24510000       0.02100000
O       -2.67590000       3.52160000       0.03000000
N       -3.40270000       2.28420000       0.03160000
N       -2.56180000       1.36540000       0.02380000
