13
Properties=species:S:1:pos:R:3 gdb_4529=T pbc="F F F"
N        0.03190000       1.27180000       0.22680000
C       -0.03900000      -0.08850000       0.06330000
N       -1.12040000      -0.79990000      -0.08900000
C       -0.64390000      -2.09960000      -0.12200000
O       -1.49140000      -3.13500000      -0.26990000
C        0.70370000      -2.14460000       0.00240000
N        1.64210000      -3.15430000       0.02400000
O        1.10350000      -0.77400000       0.12700000
H        0.89930000       1.69000000      -0.07510000
H       -0.79040000       1.75530000      -0.10240000
H       -2.37560000      -2.75280000      -0.32010000
H        2.15470000      -3.23300000       0.89520000
H        2.29520000      -3.14050000      -0.75150000
