15
Properties=species:S:1:pos:R:3 gdb_10890=T pbc="F F F"
C       -0.00590000       1.55000000       0.03620000
C       -0.03590000       0.05530000      -0.05200000
C       -0.84230000      -0.81360000       0.81250000
N        0.64770000      -0.83730000       1.02010000
C        1.12440000      -1.67930000      -0.05740000
O        1.77180000      -2.67890000      -0.01650000
C        0.57930000      -0.76730000      -1.18220000
O       -0.32350000      -1.29520000      -2.12030000
H        0.98040000       1.94360000      -0.22900000
H       -0.74090000       1.98570000      -0.64960000
H       -0.24660000       1.88350000       1.04910000
H       -1.35740000      -0.35660000       1.65110000
H       -1.32380000      -1.69910000       0.40830000
H        1.40970000      -0.22490000      -1.66080000
H        0.14090000      -1.96880000      -2.62980000
