18
Properties=species:S:1:pos:R:3 gdb_77164=T pbc="F F F"
C       -0.38880000       1.33770000       0.12960000
C        0.08200000      -0.10870000       0.04910000
C        0.92050000      -0.57450000      -1.16820000
O        2.03150000      -0.92260000      -0.26870000
C        1.34290000      -0.46760000       0.83660000
O        1.73390000      -0.41270000       1.95650000
C        0.43940000      -1.75260000      -1.96930000
C        1.38680000      -2.79010000      -2.43930000
N        0.39990000      -3.09810000      -1.38430000
H        0.41880000       2.03390000      -0.11760000
H       -1.21860000       1.51670000      -0.56050000
H       -0.73280000       1.56770000       1.14170000
H       -0.73230000      -0.80310000       0.27820000
H        1.22940000       0.24700000      -1.82330000
H       -0.42390000      -1.51480000      -2.58960000
H        1.21720000      -3.28830000      -3.38900000
H        2.42750000      -2.68720000      -2.14680000
H        0.88130000      -3.08830000      -0.48680000
