22
Properties=species:S:1:pos:R:3 gdb_19206=T pbc="F F F"
C       -0.03430000       1.52850000       0.01060000
C        1.42680000       2.06760000      -0.00050000
C        2.41560000       0.88640000      -0.01630000
C        2.19190000       0.01960000       1.23750000
C        0.73060000      -0.51950000       1.24860000
C       -0.01910000      -0.01200000       0.00210000
C        0.70660000      -0.50590000      -1.26380000
C        2.16790000       0.03320000      -1.27480000
H       -0.57290000       1.88620000       0.89510000
H       -0.58960000       1.89570000      -0.85960000
H        1.59890000       2.70320000      -0.87620000
H        1.61570000       2.69380000       0.87850000
H        3.44330000       1.26560000      -0.02410000
H        2.91060000      -0.80740000       1.24650000
H        2.39270000       0.61350000       2.13610000
H        0.72150000      -1.61510000       1.26310000
H        0.20420000      -0.19400000       2.15270000
H       -1.04680000      -0.39110000       0.00990000
H        0.69720000      -1.60130000      -1.28950000
H        0.16290000      -0.17080000      -2.15410000
H        2.35160000       0.63680000      -2.17060000
H        2.88610000      -0.79360000      -1.30610000
