25
Properties=species:S:1:pos:R:3 gdb_121231=T pbc="F F F"
C        0.34640000       1.52260000      -0.18090000
C        0.09340000       0.05620000       0.17860000
C       -1.26340000      -0.46270000      -0.31570000
C       -1.50830000      -1.92320000       0.05090000
C       -1.71770000      -2.31900000       1.54180000
C       -2.77410000      -3.35920000       1.08160000
C       -2.86380000      -2.62900000      -0.28870000
C       -4.07250000      -1.71360000      -0.40070000
O       -5.22370000      -2.54290000      -0.50040000
H        1.32060000       1.86260000       0.18470000
H        0.32700000       1.67370000      -1.26610000
H       -0.41850000       2.17510000       0.25530000
H        0.89240000      -0.56870000      -0.24230000
H        0.15320000      -0.06980000       1.26730000
H       -2.05930000       0.16900000       0.10180000
H       -1.31850000      -0.34250000      -1.40700000
H       -0.69470000      -2.52920000      -0.36690000
H       -0.85040000      -2.68730000       2.09520000
H       -2.16610000      -1.50210000       2.11740000
H       -2.34880000      -4.36160000       0.98510000
H       -3.70300000      -3.43130000       1.65140000
H       -2.84960000      -3.27430000      -1.17230000
H       -4.14010000      -1.05530000       0.48090000
H       -3.97490000      -1.06450000      -1.28550000
H       -5.99900000      -1.97590000      -0.54430000
