25
Properties=species:S:1:pos:R:3 gdb_36946=T pbc="F F F"
C       -0.12000000       1.59520000       0.01070000
C       -0.15550000       0.07250000      -0.03530000
C        0.28110000      -0.74000000       1.22050000
C       -0.87540000      -1.73490000       0.93290000
C       -1.53050000      -0.65220000       0.03400000
C        1.28890000       2.17480000       0.04060000
C        2.18400000       2.07300000      -1.23070000
C        2.70160000       3.50650000      -0.93570000
C        1.47030000       3.71900000      -0.01480000
H       -0.65510000       1.99870000      -0.86170000
H       -0.67490000       1.94000000       0.89570000
H        0.40180000      -0.28260000      -0.91090000
H        1.29990000      -1.13470000       1.25090000
H        0.10340000      -0.17080000       2.13980000
H       -0.53370000      -2.59410000       0.34830000
H       -1.45080000      -2.10520000       1.78470000
H       -2.26090000      -0.05500000       0.59060000
H       -1.98930000      -0.97130000      -0.90540000
H        1.83420000       1.77280000       0.90340000
H        2.91760000       1.26440000      -1.28150000
H        1.57440000       2.04430000      -2.14080000
H        3.63530000       3.49000000      -0.36590000
H        2.82700000       4.18580000      -1.78220000
H        0.64190000       4.19210000      -0.55320000
H        1.61820000       4.25160000       0.92830000
