22
Properties=species:S:1:pos:R:3 gdb_32581=T pbc="F F F"
C        0.01690000       1.53950000       0.00490000
C       -0.00560000       0.00760000       0.00470000
N       -1.34520000      -0.55160000       0.01380000
C       -2.09930000      -0.80720000       1.13360000
C       -3.35020000      -1.23120000       0.74400000
C       -4.47800000      -1.63720000       1.64350000
C       -3.36140000      -1.22750000      -0.68830000
C       -4.50320000      -1.62910000      -1.57200000
C       -2.11690000      -0.80150000      -1.09530000
H        1.04880000       1.90540000      -0.00190000
H       -0.49490000       1.93550000      -0.87690000
H       -0.48320000       1.93510000       0.89360000
H        0.51490000      -0.37790000      -0.87830000
H        0.52670000      -0.37820000       0.88040000
H       -1.68130000      -0.67190000       2.12000000
H       -5.36920000      -1.01540000       1.49040000
H       -4.78720000      -2.67600000       1.47160000
H       -4.19460000      -1.54980000       2.69670000
H       -5.39250000      -1.00950000      -1.40040000
H       -4.23700000      -1.53460000      -2.62910000
H       -4.80840000      -2.66940000      -1.40180000
H       -1.71440000      -0.66110000      -2.08740000
