17
Properties=species:S:1:pos:R:3 gdb_3978=T pbc="F F F"
C        0.13650000       1.47360000       0.13880000
C        0.06880000       0.01980000       0.09170000
C        0.02300000      -1.18240000       0.04450000
C       -0.05330000      -2.64120000      -0.01130000
C       -1.47820000      -3.16290000      -0.05760000
C       -2.41780000      -2.83290000       1.06670000
N       -1.75740000      -3.88490000      -1.07330000
O       -3.07370000      -4.37300000      -1.03300000
H        0.95360000       1.85270000      -0.48480000
H       -0.79270000       1.92670000      -0.22410000
H        0.30450000       1.83440000       1.15960000
H        0.47530000      -3.02360000      -0.89030000
H        0.44920000      -3.06450000       0.87120000
H       -3.45000000      -2.81180000       0.71460000
H       -2.35290000      -3.59590000       1.85240000
H       -2.15660000      -1.86910000       1.50940000
H       -3.13800000      -4.84070000      -1.87210000
