19
Properties=species:S:1:pos:R:3 gdb_96133=T pbc="F F F"
O       -0.05350000       1.41580000      -0.02210000
C       -0.00560000      -0.00960000       0.03570000
C        0.76720000      -0.51840000       1.25970000
O        0.67110000      -1.92440000       1.34600000
C       -0.63720000      -2.36120000       1.68840000
C       -1.75010000      -1.71780000       0.86180000
C       -2.29680000      -0.35470000       1.25090000
C       -1.42800000      -0.51130000       0.02980000
O       -2.04980000      -0.44220000      -1.22270000
H        0.81820000       1.73620000      -0.27500000
H        0.47520000      -0.41650000      -0.86570000
H        1.83170000      -0.28050000       1.16110000
H        0.39790000      -0.02320000       2.17270000
H       -0.63080000      -3.44310000       1.53150000
H       -0.81530000      -2.17960000       2.76110000
H       -2.46280000      -2.40340000       0.41600000
H       -3.34810000      -0.16810000       1.06520000
H       -1.89380000       0.12890000       2.13520000
H       -2.07100000       0.49230000      -1.46210000
