15
Properties=species:S:1:pos:R:3 gdb_61342=T pbc="F F F"
C        0.01020000       1.64660000      -0.15650000
C       -0.01030000       0.10950000      -0.03770000
C       -1.43970000      -0.45970000       0.07710000
C       -2.06750000      -0.19310000       1.42760000
O       -1.50650000       0.30770000       2.36860000
C       -3.47670000      -0.62490000       1.54050000
N       -4.57960000      -0.96440000       1.61180000
C        0.66920000      -0.50830000      -1.18040000
N        1.19580000      -0.99100000      -2.08860000
H        1.03720000       2.01080000      -0.23020000
H       -0.53230000       1.97420000      -1.04800000
H       -0.45150000       2.09100000       0.72710000
H        0.53730000      -0.17680000       0.86740000
H       -2.09490000      -0.05590000      -0.70490000
H       -1.44750000      -1.54780000      -0.07100000
