21
Properties=species:S:1:pos:R:3 gdb_86122=T pbc="F F F"
C        0.73670000       1.32820000       0.04820000
C       -0.00310000       0.03390000      -0.15430000
C       -0.13480000      -0.54040000      -1.35160000
C       -0.86370000      -1.84210000      -1.60400000
C       -0.43730000      -3.03150000      -0.76980000
C       -0.01800000      -3.06290000       0.49660000
C        0.16190000      -1.91760000       1.46340000
O        1.55560000      -1.67460000       1.69090000
C       -0.57660000      -0.62250000       1.08520000
H        1.55460000       1.19230000       0.76670000
H        1.15270000       1.71380000      -0.88660000
H        0.07710000       2.09650000       0.47260000
H        0.28970000      -0.04890000      -2.22420000
H       -1.94910000      -1.68990000      -1.47250000
H       -0.74920000      -2.11340000      -2.65840000
H       -0.49930000      -3.98540000      -1.29160000
H        0.27160000      -4.02790000       0.90860000
H       -0.21340000      -2.24290000       2.44190000
H        1.95420000      -1.55900000       0.82050000
H       -0.51140000       0.06200000       1.93640000
H       -1.64030000      -0.85570000       0.94160000
