15
Properties=species:S:1:pos:R:3 gdb_44173=T pbc="F F F"
N       -0.26900000       1.03150000      -0.83830000
C       -0.11050000      -0.02160000      -0.18520000
O        1.02150000      -0.53540000       0.45060000
C        0.33260000      -1.76590000       0.79620000
C       -0.34700000      -1.71800000       2.19670000
N       -1.52790000      -1.01250000       1.58440000
C       -0.98060000      -1.20270000       0.21040000
C       -0.63970000      -3.02730000       2.74850000
C       -0.90420000      -4.11980000       3.17620000
H        0.58460000       1.59190000      -0.86810000
H        0.88260000      -2.65340000       0.49170000
H        0.18350000      -1.09340000       2.92310000
H       -2.39200000      -1.52020000       1.73500000
H       -1.62160000      -1.66650000      -0.53690000
H       -1.13170000      -5.07920000       3.57160000
