21
Properties=species:S:1:pos:R:3 gdb_106181=T pbc="F F F"
O        0.02160000       1.36190000      -0.32100000
C        0.00830000      -0.01920000       0.03580000
C       -1.40540000      -0.48790000       0.03930000
C       -2.01180000      -1.87880000      -0.07360000
C       -2.92260000      -1.61700000       1.12720000
C       -2.54160000      -0.10190000       1.03370000
C       -3.56000000       0.68090000       0.19580000
C       -3.55690000      -0.05760000      -1.17240000
C       -2.24250000      -0.83710000      -1.16060000
H        0.91750000       1.69140000      -0.20040000
H        0.59250000      -0.62250000      -0.67900000
H        0.46140000      -0.16600000       1.03010000
H       -1.51190000      -2.81450000      -0.30130000
H       -3.98520000      -1.87200000       1.03570000
H       -2.52790000      -2.08010000       2.03550000
H       -2.25480000       0.37790000       1.97000000
H       -4.55210000       0.71170000       0.65860000
H       -3.21410000       1.71240000       0.06980000
H       -4.42180000      -0.72160000      -1.28000000
H       -3.58890000       0.64470000      -2.01050000
H       -1.72920000      -1.03240000      -2.09650000
