14
Properties=species:S:1:pos:R:3 gdb_130210=T pbc="F F F"
N        0.37570000       1.25530000       0.31120000
C        0.16980000      -0.09870000       0.08310000
N       -1.00230000      -0.69130000       0.28430000
N       -0.76890000      -2.00440000       0.02540000
C        0.50370000      -2.26300000      -0.34100000
C        1.14880000      -1.04490000      -0.31070000
O        2.45370000      -0.76180000      -0.66160000
C        3.38860000      -0.83290000       0.33140000
O        4.53690000      -0.59120000       0.13470000
H        1.02720000       1.67480000      -0.33870000
H       -0.49150000       1.77450000       0.34870000
H       -1.52710000      -2.65630000       0.11960000
H        0.85400000      -3.24980000      -0.59680000
H        2.94260000      -1.13940000       1.29460000
