18
Properties=species:S:1:pos:R:3 gdb_98324=T pbc="F F F"
C        0.05260000       1.50580000       0.05430000
C       -0.11370000       0.00880000      -0.20690000
C       -1.55080000      -0.46110000      -0.11830000
O       -2.49230000       0.30240000      -0.10220000
C       -1.84430000      -1.96960000      -0.02200000
O       -3.21570000      -2.18320000       0.09730000
C       -1.28960000      -2.72720000      -1.25700000
C       -1.51240000      -4.16680000      -1.15580000
N       -1.66410000      -5.30890000      -1.07370000
H        1.09880000       1.79950000      -0.06120000
H       -0.55360000       2.09000000      -0.64110000
H       -0.26800000       1.76390000       1.06710000
H        0.25160000      -0.24580000      -1.21250000
H        0.49460000      -0.59310000       0.48010000
H       -1.31780000      -2.34810000       0.86990000
H       -3.61800000      -1.29880000       0.06250000
H       -1.78840000      -2.35250000      -2.15740000
H       -0.21420000      -2.55260000      -1.36850000
