20
Properties=species:S:1:pos:R:3 gdb_57079=T pbc="F F F"
C        0.01500000       1.60040000      -0.04510000
C        0.04170000       0.05970000      -0.02580000
C        0.69220000      -0.44550000      -1.24040000
N        1.21860000      -0.84100000      -2.19080000
C        0.73750000      -0.51240000       1.23780000
C        0.00440000      -0.14220000       2.55730000
C        0.12940000      -1.38770000       3.47180000
C        0.45320000      -2.49330000       2.49670000
C        0.78460000      -2.02480000       1.29590000
H        1.03160000       2.00380000      -0.02460000
H       -0.48140000       1.97310000      -0.94440000
H       -0.52400000       1.97700000       0.82770000
H       -0.99050000      -0.31480000      -0.03860000
H        1.76320000      -0.11350000       1.24060000
H        0.39870000       0.76500000       3.02060000
H       -1.05470000       0.03990000       2.34010000
H        0.93810000      -1.27230000       4.20690000
H       -0.78260000      -1.57580000       4.04920000
H        0.45200000      -3.54050000       2.77840000
H        1.09690000      -2.62170000       0.44660000
