15
Properties=species:S:1:pos:R:3 gdb_27851=T pbc="F F F"
N       -0.05120000       1.34660000       0.15240000
C        0.02030000      -0.01830000       0.04780000
N       -1.15460000      -0.66350000       0.00220000
C       -1.08810000      -1.99680000      -0.05290000
N       -2.27800000      -2.66570000      -0.14750000
H       -3.09940000      -2.14860000       0.11790000
H       -2.25690000      -3.64720000       0.07320000
N        0.02220000      -2.75120000      -0.06080000
C        1.16720000      -2.07260000      -0.01960000
O        2.30060000      -2.79830000      -0.02910000
C        1.24950000      -0.68900000       0.03340000
H        0.75620000       1.88420000      -0.11570000
H       -0.94600000       1.74640000      -0.08260000
H        2.01800000      -3.72260000      -0.07180000
H        2.20190000      -0.17920000       0.07570000
