15
Properties=species:S:1:pos:R:3 gdb_130302=T pbc="F F F"
N        0.01280000       1.40030000      -0.16580000
C        0.04720000       0.02510000      -0.02960000
N       -1.06590000      -0.69690000      -0.00310000
O       -0.67230000      -2.05800000       0.04800000
C        0.66340000      -2.07440000       0.07500000
C        1.17550000      -0.83530000       0.02690000
O        2.53700000      -0.75790000       0.01170000
C        2.97200000      -2.13690000       0.24030000
C        1.74340000      -3.10460000       0.06120000
H        0.74890000       1.88250000       0.32990000
H       -0.89850000       1.79260000       0.03050000
H        3.78360000      -2.34360000      -0.45930000
H        3.35810000      -2.19470000       1.26310000
H        1.69210000      -3.83470000       0.87410000
H        1.78210000      -3.66020000      -0.88340000
