18
Properties=species:S:1:pos:R:3 gdb_47140=T pbc="F F F"
O        0.01570000       0.02460000       0.30480000
C        0.00410000       1.23400000       0.19550000
C       -1.24930000       2.11020000       0.12110000
C       -0.72930000       3.54170000      -0.10380000
C        0.76880000       3.38880000      -0.09070000
C        1.19210000       2.12580000       0.09100000
C        2.58940000       1.65570000       0.15350000
C        3.00680000       0.59590000       1.12150000
N        2.96800000       0.30260000      -0.31130000
H       -1.89820000       1.75010000      -0.68210000
H       -1.81430000       2.00310000       1.05220000
H       -1.07200000       3.96590000      -1.05570000
H       -1.06250000       4.24050000       0.67310000
H        1.42880000       4.24140000      -0.21970000
H        3.32510000       2.41650000      -0.09890000
H        3.99900000       0.65420000       1.56080000
H        2.24100000       0.15790000       1.75360000
H        2.11490000      -0.22310000      -0.49480000
