16
Properties=species:S:1:pos:R:3 gdb_132761=T pbc="F F F"
C       -0.05350000       1.54420000      -0.01290000
C       -0.01040000       0.04100000      -0.00860000
C        0.01220000      -0.70720000      -1.17320000
F        0.01340000      -0.07170000      -2.35050000
C        0.02680000      -2.09770000      -1.16470000
C        0.02250000      -2.70670000       0.08070000
N        0.01170000      -2.04360000       1.23890000
C       -0.00760000      -0.70700000       1.19130000
N       -0.07860000      -0.05950000       2.41070000
H        0.85680000       1.97880000       0.42210000
H       -0.14540000       1.92790000      -1.02960000
H       -0.90200000       1.91480000       0.57390000
H        0.04290000      -2.65880000      -2.08940000
H        0.03350000      -3.79130000       0.15480000
H        0.14220000      -0.66020000       3.19120000
H        0.32390000       0.86240000       2.46840000
