22
Properties=species:S:1:pos:R:3 gdb_113583=T pbc="F F F"
C       -0.14970000       1.58640000      -0.33060000
C       -0.00490000       0.17220000       0.22680000
N       -1.28250000      -0.52860000       0.16640000
C       -1.56180000      -1.30950000      -1.03750000
C       -1.32740000      -1.98460000       0.26770000
C       -0.11690000      -2.89000000       0.53470000
C       -0.59000000      -3.70690000       1.74770000
O       -1.99600000      -3.82830000       1.58790000
C       -2.45820000      -2.56790000       1.12820000
H        0.79710000       2.13020000      -0.25700000
H       -0.44480000       1.56100000      -1.38470000
H       -0.91530000       2.13930000       0.22040000
H        0.79270000      -0.35960000      -0.32070000
H        0.30480000       0.21630000       1.27840000
H       -2.56600000      -1.22260000      -1.44710000
H       -0.77210000      -1.38670000      -1.78660000
H        0.06640000      -3.54960000      -0.31850000
H        0.80270000      -2.33500000       0.73470000
H       -0.16760000      -4.71330000       1.79760000
H       -0.34890000      -3.18120000       2.68700000
H       -2.66070000      -1.88390000       1.96750000
H       -3.38940000      -2.72900000       0.57800000
