14
Properties=species:S:1:pos:R:3 gdb_5022=T pbc="F F F"
C       -0.02900000       1.50700000       0.00690000
C       -0.00640000       0.00840000      -0.01140000
C       -0.03990000      -0.70000000      -1.15470000
O       -0.02140000      -2.05570000      -1.22250000
C        0.03460000      -2.74400000      -0.06250000
C        0.07270000      -2.15950000       1.14570000
C        0.05520000      -0.70260000       1.28090000
O        0.08790000      -0.11550000       2.35460000
H        0.86150000       1.89370000       0.51260000
H       -0.07610000       1.92650000      -1.00140000
H       -0.88760000       1.86630000       0.58310000
H       -0.08550000      -0.26720000      -2.14690000
H        0.04430000      -3.81190000      -0.24210000
H        0.11720000      -2.76570000       2.04210000
