19
Properties=species:S:1:pos:R:3 gdb_112295=T pbc="F F F"
C       -0.08100000       1.61150000       0.03720000
C       -0.13150000       0.08140000      -0.01310000
C        0.68710000      -0.51970000      -1.16190000
N        2.11990000      -0.30160000      -1.05780000
C        2.89610000      -1.41050000      -1.30230000
O        4.09660000      -1.44970000      -1.36760000
N        2.02130000      -2.55310000      -1.47240000
C        1.30650000      -2.85820000      -0.20770000
C        0.65150000      -2.04660000      -1.25900000
H        0.93440000       1.97480000       0.22930000
H       -0.42310000       2.05260000      -0.90580000
H       -0.71960000       1.99880000       0.83620000
H        0.22180000      -0.33810000       0.93520000
H       -1.17080000      -0.24720000      -0.13770000
H        0.30350000      -0.10680000      -2.10860000
H        2.54730000       0.60920000      -1.03490000
H        1.03430000      -3.90190000      -0.08750000
H        1.65840000      -2.36670000       0.69490000
H       -0.12290000      -2.49090000      -1.87540000
