18
Properties=species:S:1:pos:R:3 gdb_41570=T pbc="F F F"
C        0.45350000       1.63720000      -0.01050000
O        1.56630000       1.28720000       0.84930000
C        1.22490000      -0.10400000       0.79500000
C        0.00860000       0.15750000      -0.12470000
N        0.59450000      -0.69790000      -1.18340000
C        0.92650000      -0.11370000      -2.49210000
C        2.40170000       0.21760000      -2.38600000
C        2.91500000      -0.19590000      -1.22730000
C        1.86140000      -0.87590000      -0.40120000
H       -0.26320000       2.27970000       0.51650000
H        0.78020000       2.13570000      -0.92920000
H        1.20900000      -0.58010000       1.77740000
H       -1.03410000      -0.06310000       0.11020000
H        0.73230000      -0.82780000      -3.30610000
H        0.30380000       0.76720000      -2.70060000
H        2.95220000       0.70370000      -3.18360000
H        3.94810000      -0.10000000      -0.91760000
H        2.10470000      -1.92450000      -0.17920000
