21
Properties=species:S:1:pos:R:3 gdb_109828=T pbc="F F F"
C       -0.62240000       1.30210000      -1.59740000
C       -0.22600000      -0.05220000      -1.04240000
C        1.20890000      -0.52870000      -0.94810000
C        2.39240000       0.30360000      -1.38680000
O        3.60510000      -0.12520000      -0.78080000
C        0.41850000      -0.23490000       0.31830000
C        0.73170000       0.93770000       1.23790000
C       -0.51220000       1.40040000       1.97090000
O       -0.91920000       2.53270000       1.98950000
H        0.05890000       2.10320000      -1.30400000
H       -0.64960000       1.27790000      -2.69220000
H       -1.62100000       1.58390000      -1.24760000
H       -0.93470000      -0.83350000      -1.30650000
H        1.36670000      -1.58580000      -1.14840000
H        2.54900000       0.18220000      -2.46420000
H        2.22040000       1.37460000      -1.21140000
H        3.48260000      -0.08220000       0.17290000
H        0.09390000      -1.11640000       0.86660000
H        1.45860000       0.61630000       1.99960000
H        1.15510000       1.79850000       0.71720000
H       -1.05510000       0.58730000       2.50810000
