20
Properties=species:S:1:pos:R:3 gdb_104102=T pbc="F F F"
C       -0.42580000       1.70740000      -0.02350000
C        0.05860000       0.25540000       0.00820000
C       -1.14050000      -0.70520000      -0.04180000
O       -1.85850000      -0.47990000      -1.24630000
C        1.02220000      -0.06540000      -1.17210000
N        1.91600000      -1.06190000      -0.60940000
C        1.96590000      -1.08880000       0.75820000
O        2.70800000      -1.76740000       1.43370000
C        0.91240000      -0.08900000       1.24770000
H        0.41880000       2.40290000       0.01040000
H       -1.00240000       1.90450000      -0.93090000
H       -1.07110000       1.92060000       0.83570000
H       -0.78200000      -1.74430000       0.01570000
H       -1.77710000      -0.52180000       0.83820000
H       -2.57310000      -1.12050000      -1.29810000
H        0.47250000      -0.44970000      -2.03500000
H        1.56610000       0.83620000      -1.48780000
H        2.60320000      -1.56290000      -1.14990000
H        1.43480000       0.79310000       1.63500000
H        0.34150000      -0.51380000       2.07760000
