18
Properties=species:S:1:pos:R:3 gdb_105595=T pbc="F F F"
C       -0.03940000       1.61740000      -0.01140000
C        0.11570000       0.09200000       0.01670000
C        0.74110000      -0.52020000      -1.25480000
C        0.61160000      -2.04760000      -1.42220000
O       -0.22910000      -1.84970000      -2.60950000
C       -0.14770000      -0.48430000      -2.49590000
N       -0.64090000       0.43860000      -3.18720000
C        2.13250000       0.02440000      -1.53090000
O        3.13360000      -0.64450000      -1.51110000
H        0.92670000       2.13020000       0.01120000
H       -0.57400000       1.93740000      -0.90970000
H       -0.60470000       1.94990000       0.86390000
H        0.72260000      -0.21500000       0.87750000
H       -0.86960000      -0.36990000       0.14970000
H        1.53490000      -2.57060000      -1.67190000
H        0.05720000      -2.56930000      -0.63930000
H       -1.20050000       0.07460000      -3.96050000
H        2.16400000       1.10750000      -1.76500000
