20
Properties=species:S:1:pos:R:3 gdb_78898=T pbc="F F F"
C       -0.05120000       1.53010000       0.03990000
C        0.01280000       0.00710000      -0.04390000
C        0.75470000      -0.50400000      -1.29340000
C        0.50210000      -2.02830000      -1.46540000
C        1.66960000      -2.25270000      -0.48520000
C        1.42930000      -1.81070000       0.98440000
C        2.19040000      -0.53010000       0.78140000
C        2.20710000      -0.81340000      -0.74580000
N        0.77670000      -0.49930000       1.11610000
H        0.95130000       1.96580000      -0.03520000
H       -0.65860000       1.93640000      -0.77480000
H       -0.48610000       1.84510000       0.99230000
H       -1.00150000      -0.40630000       0.00160000
H        0.63690000       0.13920000      -2.16750000
H       -0.49130000      -2.40390000      -1.19740000
H        0.75790000      -2.38150000      -2.46880000
H        2.31110000      -3.13150000      -0.56680000
H        1.37230000      -2.47100000       1.84320000
H        2.92080000      -0.01330000       1.39300000
H        3.07890000      -0.60830000      -1.36140000
