21
Properties=species:S:1:pos:R:3 gdb_98187=T pbc="F F F"
C       -0.15660000       1.54030000       0.00050000
C       -0.19440000       0.03130000      -0.22090000
C        0.91310000      -0.46850000      -1.12550000
O        1.73080000       0.26900000      -1.63230000
C        0.98920000      -1.97970000      -1.40610000
C        2.31850000      -2.53130000      -0.86240000
O       -0.11580000      -2.62200000      -0.78620000
C        0.88790000      -2.18020000      -2.92900000
O        0.79310000      -3.58650000      -3.13920000
H        0.79100000       1.84720000       0.45110000
H       -0.25190000       2.07850000      -0.94630000
H       -0.97090000       1.85300000       0.65990000
H       -0.12840000      -0.52580000       0.72270000
H       -1.14700000      -0.30110000      -0.65210000
H        2.31900000      -2.48890000       0.23020000
H        2.44080000      -3.57270000      -1.17110000
H        3.15820000      -1.94360000      -1.24130000
H       -0.20740000      -3.47000000      -1.23990000
H       -0.01110000      -1.66940000      -3.30250000
H        1.76620000      -1.74710000      -3.42130000
H        0.51690000      -3.74500000      -4.04570000
