18
Properties=species:S:1:pos:R:3 gdb_36916=T pbc="F F F"
C       -0.27490000       1.07650000      -0.40730000
C        1.06630000       1.05360000       0.29780000
C        0.34150000      -0.22380000       0.02840000
O       -0.16620000      -0.89250000       1.15510000
C       -1.24490000      -1.73150000       0.90490000
C       -1.54120000      -2.58040000       2.15860000
N       -2.80710000      -2.05960000       2.69570000
C       -3.20550000      -1.20890000       1.84750000
O       -2.47050000      -0.97150000       0.72880000
H       -1.13090000       1.41990000       0.15920000
H       -0.30660000       1.30070000      -1.46780000
H        1.96580000       1.26560000      -0.26860000
H        1.08900000       1.38370000       1.33000000
H        0.73020000      -0.89810000      -0.73420000
H       -1.09600000      -2.29440000      -0.02350000
H       -1.64710000      -3.64410000       1.92350000
H       -0.73170000      -2.46750000       2.88460000
H       -4.11910000      -0.62880000       1.91620000
