19
Properties=species:S:1:pos:R:3 gdb_74540=T pbc="F F F"
C       -0.20150000       1.51490000       0.04850000
C       -0.05500000       0.03290000       0.02810000
C       -0.05010000      -0.86130000      -0.96280000
C        0.14540000      -2.20240000      -0.23520000
C       -0.93560000      -2.05860000       0.91420000
C        0.10760000      -0.86270000       1.26380000
C        1.19400000      -1.92610000       0.79530000
C        2.14410000      -2.34930000      -0.36760000
O        1.01510000      -3.11950000      -0.96110000
H        0.66300000       1.99400000       0.52570000
H       -0.29700000       1.91850000      -0.96340000
H       -1.08430000       1.82510000       0.62250000
H       -0.14400000      -0.74140000      -2.03300000
H       -1.94940000      -1.75290000       0.64280000
H       -0.93820000      -2.86300000       1.65370000
H        0.11830000      -0.40890000       2.25550000
H        1.22670000      -2.73380000       1.53100000
H        2.46190000      -1.55620000      -1.05000000
H        2.97560000      -3.00800000      -0.10720000
