21
Properties=species:S:1:pos:R:3 gdb_123231=T pbc="F F F"
C       -1.29460000       1.04940000      -0.02430000
C       -0.11800000       0.10370000       0.14460000
O        0.45980000      -0.12860000      -1.12520000
C        1.56550000      -0.99700000      -1.08420000
C        2.07690000      -1.15140000      -2.50810000
O        3.18830000      -2.02240000      -2.47440000
C        3.76040000      -2.25160000      -3.73450000
C        4.93610000      -3.19670000      -3.55780000
O        5.62470000      -3.58100000      -4.46480000
H       -0.96470000       1.99970000      -0.45360000
H       -2.04430000       0.61420000      -0.69110000
H       -1.76420000       1.24940000       0.94330000
H        0.63240000       0.53540000       0.82820000
H       -0.44710000      -0.85010000       0.59040000
H        2.36820000      -0.59610000      -0.44380000
H        1.28660000      -1.98450000      -0.68150000
H        1.27820000      -1.55540000      -3.14970000
H        2.35960000      -0.16640000      -2.91160000
H        3.04340000      -2.70550000      -4.43990000
H        4.12200000      -1.31970000      -4.20200000
H        5.10390000      -3.50390000      -2.50190000
