22
Properties=species:S:1:pos:R:3 gdb_123086=T pbc="F F F"
C       -0.27960000       1.40490000      -0.26440000
C       -0.35820000      -0.10310000      -0.45350000
O       -0.05160000      -0.64100000      -1.50300000
N       -0.79030000      -0.80650000       0.63510000
C       -0.97910000      -2.24760000       0.59720000
C       -2.39210000      -2.66830000       0.17180000
C       -2.56470000      -4.18910000       0.15730000
C       -3.95480000      -4.62330000      -0.28790000
O       -4.00660000      -6.04120000      -0.24030000
H        0.71320000       1.74350000      -0.56970000
H       -1.00550000       1.88270000      -0.92880000
H       -0.47030000       1.73250000       0.76100000
H       -1.09600000      -0.30190000       1.45000000
H       -0.24810000      -2.64240000      -0.11300000
H       -0.74300000      -2.65510000       1.58700000
H       -3.12640000      -2.21430000       0.85150000
H       -2.58600000      -2.25470000      -0.82490000
H       -1.82720000      -4.64620000      -0.51350000
H       -2.37700000      -4.60360000       1.15600000
H       -4.71450000      -4.17460000       0.37390000
H       -4.15080000      -4.25000000      -1.30630000
H       -4.87260000      -6.32130000      -0.55010000
