21
Properties=species:S:1:pos:R:3 gdb_91125=T pbc="F F F"
O       -0.08580000       1.39750000      -0.01810000
C       -0.03820000      -0.02260000       0.01910000
C        0.50490000      -0.61200000       1.36010000
C       -0.76150000      -1.32210000       1.84530000
C       -1.32080000      -2.03920000       0.57230000
C       -2.74500000      -2.46400000       0.94750000
C       -3.20810000      -1.16750000       1.68160000
C       -1.93170000      -0.33060000       1.53970000
C       -1.46160000      -0.56730000       0.06680000
H        0.81870000       1.72560000      -0.01640000
H        0.51510000      -0.40440000      -0.85140000
H        1.34530000      -1.29880000       1.21560000
H        0.82660000       0.19130000       2.03080000
H       -0.71690000      -1.84770000       2.80260000
H       -0.70430000      -2.75830000       0.02680000
H       -3.35580000      -2.69530000       0.06950000
H       -2.75430000      -3.34440000       1.59760000
H       -4.06920000      -0.69430000       1.20000000
H       -3.47290000      -1.34640000       2.72830000
H       -1.92920000       0.67690000       1.95650000
H       -2.11040000      -0.32080000      -0.77610000
