18
Properties=species:S:1:pos:R:3 gdb_65149=T pbc="F F F"
C       -0.17480000       1.45120000      -0.39600000
C       -0.00660000      -0.02560000      -0.10930000
C        1.22750000      -0.71140000      -0.57830000
N        1.01360000      -0.47130000       0.85970000
C       -1.26290000      -0.85470000       0.00120000
C       -2.42870000      -0.37640000       0.89030000
C       -3.19510000      -0.30680000      -0.42990000
O       -4.28650000      -0.02920000      -0.80770000
O       -2.12670000      -0.72230000      -1.18780000
H        0.80020000       1.93030000      -0.52470000
H       -0.75100000       1.60580000      -1.31270000
H       -0.69250000       1.96760000       0.41990000
H        1.19650000      -1.75540000      -0.87820000
H        1.96470000      -0.11190000      -1.10540000
H        1.56660000       0.32470000       1.16780000
H       -1.00050000      -1.90410000       0.14850000
H       -2.81970000      -1.10670000       1.59990000
H       -2.30380000       0.58450000       1.39080000
