14
Properties=species:S:1:pos:R:3 gdb_7231=T pbc="F F F"
C        0.13130000       1.48990000       0.00790000
C        0.01800000      -0.00810000       0.00150000
O        0.95990000      -0.76950000      -0.01180000
C       -1.43090000      -0.56460000       0.01280000
O       -2.38900000       0.17050000       0.02580000
N       -1.41790000      -1.94010000       0.00500000
C       -2.48420000      -2.83410000       0.01030000
N       -3.70050000      -2.48120000       0.02420000
H        1.18060000       1.78440000      -0.00170000
H       -0.39530000       1.90410000      -0.85770000
H       -0.37670000       1.89510000       0.88880000
H       -0.48030000      -2.32260000      -0.00620000
H       -2.11710000      -3.86790000       0.00090000
H       -4.29760000      -3.30680000       0.02530000
