19
Properties=species:S:1:pos:R:3 gdb_72944=T pbc="F F F"
O       -0.22330000       1.48210000       0.32190000
C        0.00590000       0.14110000      -0.00980000
C        0.40120000      -0.19110000      -1.47470000
C       -0.75730000      -1.23860000      -1.53520000
C       -1.21610000      -0.82590000      -0.10930000
C       -0.63060000      -1.66590000       1.06670000
O        0.19920000      -2.78650000       0.68730000
C        1.40650000      -1.99700000       0.83500000
C        0.60030000      -0.72740000       1.15840000
H        0.62630000       1.93820000       0.34030000
H        0.21420000       0.67530000      -2.11420000
H        1.41530000      -0.55210000      -1.66440000
H       -1.49460000      -1.04240000      -2.31520000
H       -0.43460000      -2.27810000      -1.59950000
H       -2.23770000      -0.46630000       0.01490000
H       -1.29940000      -1.90910000       1.89660000
H        2.01320000      -2.36290000       1.67280000
H        2.02040000      -1.99970000      -0.07290000
H        0.86410000      -0.15960000       2.05020000
