18
Properties=species:S:1:pos:R:3 gdb_6203=T pbc="F F F"
C        0.04680000       1.49990000       0.01040000
C       -0.01440000      -0.03150000       0.00300000
C       -1.47340000      -0.51190000      -0.01900000
C        0.80740000      -0.64000000      -1.17880000
O        1.68140000      -1.60320000      -0.55820000
C        1.51840000      -1.41700000       0.78170000
N        2.29850000      -2.24330000       1.54590000
N        0.66220000      -0.57100000       1.19820000
H        1.08410000       1.84460000       0.05800000
H       -0.41700000       1.91840000      -0.89030000
H       -0.48060000       1.89500000       0.88310000
H       -2.00560000      -0.11830000      -0.89260000
H       -1.51980000      -1.60490000      -0.04980000
H       -1.99300000      -0.17780000       0.88330000
H        0.19240000      -1.16220000      -1.91660000
H        1.42480000       0.10530000      -1.69240000
H        3.17170000      -2.52010000       1.12420000
H        2.36570000      -1.96110000       2.51120000
