15
Properties=species:S:1:pos:R:3 gdb_50424=T pbc="F F F"
O       -0.06050000      -0.11570000       0.09560000
C       -0.02720000       1.08400000       0.14000000
C        1.24290000       1.91860000       0.03810000
C        1.49180000       2.77950000       1.32990000
N        2.69070000       2.22440000       1.96830000
C        3.15800000       1.33330000       1.19110000
N        2.45220000       1.10460000       0.00630000
C        2.77570000       0.14190000      -0.92820000
O        3.75660000      -0.55840000      -0.85810000
H       -0.94930000       1.69480000       0.26530000
H        1.15010000       2.55620000      -0.84970000
H        1.65870000       3.83340000       1.08680000
H        0.64210000       2.73790000       2.01990000
H        4.04900000       0.74610000       1.37230000
H        2.04640000       0.09950000      -1.75520000
