19
Properties=species:S:1:pos:R:3 gdb_61900=T pbc="F F F"
C        0.08820000       1.44760000       0.15710000
C        0.03480000      -0.09870000       0.07650000
N       -1.28950000      -0.69480000       0.15780000
C       -2.12000000      -0.26630000       1.26830000
C       -3.34280000      -1.07460000       1.34400000
N       -4.31840000      -1.68970000       1.40220000
C        0.63960000      -0.51480000      -1.27330000
C        2.13860000      -0.70660000      -1.32830000
O       -0.07240000      -0.65800000      -2.24030000
H        1.11400000       1.81570000       0.05600000
H       -0.51540000       1.89040000      -0.64160000
H       -0.29000000       1.80380000       1.11930000
H        0.65580000      -0.50740000       0.88570000
H       -1.75750000      -0.59430000      -0.73720000
H       -1.56420000      -0.40970000       2.20440000
H       -2.42650000       0.79400000       1.25000000
H        2.66670000       0.09740000      -0.80610000
H        2.39320000      -1.64080000      -0.81300000
H        2.47220000      -0.76810000      -2.36470000
