14
Properties=species:S:1:pos:R:3 gdb_35414=T pbc="F F F"
N       -0.17180000      -1.19030000      -0.17930000
C       -0.06030000      -0.05100000      -0.02270000
C        0.03500000       1.40530000       0.07770000
O       -0.17350000       1.93480000       1.40810000
C        1.07350000       2.65800000       1.36710000
C        2.30380000       1.91210000       1.96030000
O        2.14090000       0.52930000       1.66100000
C        2.63350000       1.36610000       0.62180000
C        1.42770000       2.09150000      -0.02580000
H       -0.69080000       1.84130000      -0.61980000
H        0.97630000       3.72050000       1.59430000
H        2.92370000       2.16990000       2.81090000
H        3.57910000       1.09860000       0.16630000
H        1.62830000       2.71780000      -0.89140000
