15
Properties=species:S:1:pos:R:3 gdb_125811=T pbc="F F F"
C        0.05300000       1.47180000       0.07270000
C        0.00220000      -0.02000000       0.06710000
N        0.00810000      -0.68050000      -1.06380000
O       -0.05620000      -2.03950000      -0.72100000
C       -0.09210000      -2.14430000       0.60540000
C       -0.05270000      -0.91490000       1.19080000
C       -0.10630000      -0.52770000       2.61740000
N        0.11680000      -1.54190000       3.51840000
O       -0.36770000       0.60850000       2.96990000
H        0.94010000       1.82430000       0.60680000
H        0.07430000       1.84590000      -0.95230000
H       -0.81120000       1.87750000       0.60300000
H       -0.17050000      -3.14820000       0.99570000
H        0.65090000      -2.35050000       3.24600000
H        0.19920000      -1.25280000       4.48130000
