17
Properties=species:S:1:pos:R:3 gdb_85694=T pbc="F F F"
C       -0.79270000       1.30800000      -0.02900000
C       -0.03260000      -0.00130000      -0.02950000
O        1.19460000       0.06390000      -0.81010000
C        2.00750000      -0.46120000       0.27280000
C        3.16290000       0.35410000       0.59700000
C        4.11800000       1.02250000       0.89040000
C        0.78210000      -0.39670000       1.20070000
C        0.67790000      -0.03010000       2.60730000
O        0.43880000      -1.37550000       2.14430000
H       -0.16820000       2.11940000       0.35480000
H       -1.10380000       1.56210000      -1.04680000
H       -1.69280000       1.22680000       0.58990000
H       -0.66810000      -0.82700000      -0.37890000
H        2.31260000      -1.49720000       0.07050000
H        4.96540000       1.61330000       1.13830000
H        1.58600000       0.10710000       3.19090000
H       -0.20250000       0.49900000       2.96760000
