15
Properties=species:S:1:pos:R:3 gdb_17091=T pbc="F F F"
N       -0.02050000      -1.13500000      -0.10120000
C        0.00050000       0.01870000      -0.03320000
C        0.02470000       1.47300000       0.03470000
C       -0.42860000       2.06330000       1.42090000
C        0.88260000       2.80730000       1.74780000
C        1.24130000       3.53570000       0.43340000
C        1.47270000       2.06020000       0.04780000
O        1.89210000       1.80230000       1.41290000
H       -0.56230000       1.86980000      -0.79830000
H       -1.29620000       2.72060000       1.33300000
H       -0.64180000       1.28190000       2.15040000
H        1.00000000       3.24800000       2.73660000
H        0.47790000       4.11980000      -0.08700000
H        2.18230000       4.07940000       0.51150000
H        2.16880000       1.72080000      -0.71730000
