15
Properties=species:S:1:pos:R:3 gdb_16513=T pbc="F F F"
C        0.09560000       1.47890000       0.07290000
C       -0.04210000      -0.01370000      -0.08090000
C        0.80910000      -0.77340000      -1.13680000
N        0.45770000      -2.21590000      -0.90250000
C       -0.58150000      -2.08890000      -0.19120000
O       -0.56230000      -2.32520000       1.19290000
C       -0.66850000      -0.82990000       1.19170000
C       -1.35150000      -0.73210000      -0.09330000
H        1.10780000       1.74810000       0.39370000
H       -0.09710000       1.98520000      -0.88050000
H       -0.60890000       1.88110000       0.80740000
H        0.60810000      -0.39000000      -2.14960000
H        1.88740000      -0.70800000      -0.95650000
H       -0.84450000      -0.38710000       2.16500000
H       -2.35700000      -0.46950000      -0.39510000
