19
Properties=species:S:1:pos:R:3 gdb_63177=T pbc="F F F"
C       -0.10030000       1.54090000      -0.02700000
C        0.05150000       0.04510000       0.07470000
O       -1.08930000      -0.69300000      -0.31170000
C        1.37810000      -0.66810000      -0.18900000
O        2.52670000       0.13440000      -0.16340000
C        2.99350000       0.18950000       1.19610000
C        1.74310000       0.06400000       2.08920000
C        0.76340000      -0.69170000       1.19530000
O        0.15430000      -1.79700000       1.77300000
H        0.84710000       2.04610000       0.16910000
H       -0.41360000       1.81710000      -1.04090000
H       -0.85710000       1.91010000       0.67240000
H       -1.12190000      -0.72760000      -1.27410000
H        1.40500000      -1.53500000      -0.84570000
H        3.68750000      -0.64220000       1.38370000
H        3.53690000       1.13000000       1.31820000
H        1.93180000      -0.52800000       2.98740000
H        1.36080000       1.04040000       2.40070000
H       -0.64100000      -1.96460000       1.24860000
