20
Properties=species:S:1:pos:R:3 gdb_14966=T pbc="F F F"
C       -0.21740000       1.55770000      -0.00140000
C        0.06920000       0.04600000       0.03660000
C        0.77180000      -0.47390000      -1.19380000
C        2.04640000      -0.86790000      -1.18370000
C        2.74750000      -1.42000000      -2.39510000
O        1.87470000      -1.71660000      -3.46740000
C        0.92160000      -0.69150000      -3.68250000
C       -0.01720000      -0.55180000      -2.48290000
H        0.71350000       2.12750000      -0.08350000
H       -0.85190000       1.83090000      -0.85030000
H       -0.73240000       1.87710000       0.91000000
H        0.67450000      -0.18220000       0.92090000
H       -0.88160000      -0.49090000       0.16320000
H        2.63960000      -0.80540000      -0.27360000
H        3.53720000      -0.71720000      -2.72350000
H        3.25240000      -2.36190000      -2.14710000
H        1.42860000       0.27000000      -3.87060000
H        0.37490000      -0.96680000      -4.58900000
H       -0.70780000      -1.40590000      -2.44440000
H       -0.64180000       0.34130000      -2.61130000
