18
Properties=species:S:1:pos:R:3 gdb_125927=T pbc="F F F"
C       -0.54570000       1.55390000      -0.27040000
C        0.04660000       0.19220000       0.03340000
C        0.80240000      -0.58530000      -1.13340000
C        2.01260000      -0.50810000      -0.21530000
N        3.22060000      -0.85210000       0.18470000
C        3.23540000      -0.28710000       1.44860000
C        4.43280000      -0.36180000       2.33610000
N        2.11420000       0.34240000       1.83250000
N        1.37120000       0.19550000       0.70860000
H        0.17190000       2.18100000      -0.80740000
H       -1.44340000       1.44250000      -0.88670000
H       -0.82940000       2.06690000       0.65310000
H       -0.66730000      -0.44710000       0.56160000
H        0.42220000      -1.59000000      -1.32860000
H        0.87330000      -0.03040000      -2.07170000
H        5.27480000       0.18690000       1.90150000
H        4.20240000       0.06430000       3.31390000
H        4.75280000      -1.40060000       2.46140000
