23
Properties=species:S:1:pos:R:3 gdb_121118=T pbc="F F F"
C        0.06150000       1.50220000       0.12950000
C        0.26980000       0.00460000      -0.02530000
O        0.55780000      -0.53810000       1.24760000
C        0.67750000      -1.94530000       1.27160000
C        1.95500000      -2.50720000       0.60850000
C        2.17240000      -3.82900000       1.35500000
C        1.89470000      -3.45300000       2.82370000
O        3.01220000      -2.78540000       3.40920000
C        0.74870000      -2.42450000       2.74280000
H        0.96190000       1.97350000       0.53370000
H       -0.16580000       1.95960000      -0.83820000
H       -0.76640000       1.70470000       0.81490000
H       -0.63500000      -0.47060000      -0.44290000
H        1.09160000      -0.19520000      -0.73140000
H       -0.20450000      -2.38630000       0.77580000
H        1.87050000      -2.62740000      -0.47450000
H        2.78160000      -1.82040000       0.81940000
H        1.44370000      -4.58070000       1.02440000
H        3.16940000      -4.26020000       1.21490000
H        1.62180000      -4.32880000       3.42900000
H        3.75590000      -3.39690000       3.40400000
H        0.97700000      -1.57620000       3.39120000
H       -0.20140000      -2.85340000       3.07010000
