12
Properties=species:S:1:pos:R:3 gdb_4018=T pbc="F F F"
N       -0.04410000       1.30420000      -0.12300000
C       -0.01730000      -0.04010000      -0.01060000
N        1.17660000      -0.65760000       0.07720000
H        1.19120000      -1.66620000       0.05780000
H        2.01760000      -0.17780000      -0.19640000
C       -1.22210000      -0.76740000       0.00600000
N       -2.37320000      -0.00470000       0.04650000
O       -3.44910000      -0.59660000       0.04970000
C       -1.19350000      -2.18530000      -0.00870000
N       -1.09600000      -3.34180000      -0.01810000
H        0.72970000       1.84720000       0.22380000
H       -0.97360000       1.70190000      -0.05520000
