15
Properties=species:S:1:pos:R:3 gdb_30630=T pbc="F F F"
O        0.03650000       1.37020000       0.00890000
C       -0.01920000      -0.03360000       0.00270000
C       -1.47610000      -0.48000000       0.01180000
O       -2.40430000       0.29910000       0.02240000
C       -1.69180000      -1.93990000       0.00630000
C       -2.91020000      -2.58080000       0.01240000
N       -2.61540000      -3.91560000       0.00370000
C       -1.25050000      -4.03620000      -0.00730000
N       -0.66520000      -2.86650000      -0.00610000
H        0.96350000       1.62470000       0.00150000
H        0.46170000      -0.48210000      -0.88210000
H        0.47510000      -0.49030000       0.87590000
H       -3.91690000      -2.20030000       0.02200000
H       -3.28180000      -4.67030000       0.00510000
H       -0.75880000      -4.99750000      -0.01580000
