18
Properties=species:S:1:pos:R:3 gdb_81102=T pbc="F F F"
C       -0.31580000       1.46120000      -0.05240000
C       -0.02860000      -0.02520000       0.06880000
C        1.18070000      -0.60760000      -0.75730000
N        2.05900000      -0.00640000       0.30590000
C        0.97660000      -0.51460000       1.21760000
C        0.89400000       0.01920000       2.61290000
O        0.38140000      -0.57560000       3.52890000
C        0.94720000      -2.03120000       0.96230000
C        1.09830000      -2.09570000      -0.36370000
H        0.60140000       2.04990000       0.00130000
H       -0.80740000       1.66910000      -1.00960000
H       -0.99700000       1.79330000       0.73890000
H       -0.94220000      -0.61920000       0.01990000
H        1.37260000      -0.33000000      -1.79430000
H        2.92190000      -0.54010000       0.42390000
H        1.32970000       1.03390000       2.74430000
H        0.79560000      -2.79430000       1.71050000
H        1.10900000      -2.94810000      -1.02780000
