15
Properties=species:S:1:pos:R:3 gdb_34670=T pbc="F F F"
C       -0.14680000      -1.23140000      -0.11480000
C       -0.05460000      -0.03580000      -0.03620000
C        0.02340000       1.38960000       0.03620000
C        0.52120000       2.09700000       1.30050000
C        0.92610000       1.35820000       2.45520000
C        1.25420000       0.76010000       3.44450000
C        1.37250000       2.11510000       0.02720000
C        2.60400000       1.39390000      -0.05390000
C        3.65140000       0.81120000      -0.14020000
H       -0.21750000      -2.28890000      -0.17730000
H       -0.76940000       1.91700000      -0.48640000
H        0.01780000       3.03580000       1.51300000
H        1.54860000       0.22240000       4.31130000
H        1.36420000       3.06440000      -0.50060000
H        4.57230000       0.28740000      -0.20900000
