18
Properties=species:S:1:pos:R:3 gdb_45423=T pbc="F F F"
N       -0.04980000       1.28710000      -0.01170000
C       -0.02630000       0.02410000       0.00490000
O        1.12700000      -0.71690000       0.02240000
C        0.86650000      -2.13450000       0.00380000
C        0.11520000      -2.51520000       1.28200000
C       -1.21290000      -1.71080000       1.29660000
C       -1.25060000      -0.85580000       0.00950000
C       -1.13060000      -1.80790000      -1.19250000
O        0.14090000      -2.47580000      -1.14450000
H        0.90310000       1.65820000      -0.00840000
H        1.84240000      -2.61180000      -0.08560000
H       -0.05920000      -3.59430000       1.27550000
H        0.74150000      -2.28420000       2.14760000
H       -2.08000000      -2.37770000       1.31410000
H       -1.27880000      -1.06620000       2.17630000
H       -2.14700000      -0.24020000      -0.05930000
H       -1.93280000      -2.55740000      -1.17010000
H       -1.18990000      -1.26400000      -2.14140000
