17
Properties=species:S:1:pos:R:3 gdb_71145=T pbc="F F F"
C        0.07490000       1.47660000      -0.11800000
C       -0.03130000      -0.01560000       0.03190000
C       -1.32690000      -0.70750000       0.52120000
N       -0.54020000      -1.66000000       1.37480000
C        0.62920000      -2.15020000       0.56080000
C        0.67520000      -0.80700000       1.16850000
C        0.62530000      -1.98110000      -0.91990000
N        0.87560000      -2.88130000      -1.76880000
O        0.36270000      -0.66300000      -1.19920000
H        1.10220000       1.76520000      -0.35950000
H       -0.57810000       1.82840000      -0.92200000
H       -0.21890000       1.97400000       0.81040000
H       -1.92700000      -0.07970000       1.18410000
H       -1.95910000      -1.16490000      -0.24610000
H        1.11640000      -3.01550000       0.98780000
H        1.32110000      -0.46040000       1.96610000
H        0.85320000      -2.49880000      -2.71580000
