16
Properties=species:S:1:pos:R:3 gdb_54991=T pbc="F F F"
N        0.38890000       1.10490000      -0.84030000
C       -0.06670000       0.41760000       0.24560000
O        0.52320000       0.37100000       1.30630000
C       -1.40810000      -0.25040000       0.04580000
O       -1.53680000      -1.54590000       0.65440000
C       -2.25760000      -0.48490000       1.22080000
C       -2.14230000      -0.00360000       2.65980000
O       -3.58920000       0.08850000       2.73960000
C       -3.77040000      -0.43800000       1.40980000
H        1.29950000       1.53160000      -0.77900000
H       -0.03170000       1.00830000      -1.74810000
H       -1.87570000      -0.16580000      -0.93620000
H       -1.72790000      -0.74920000       3.34740000
H       -1.64970000       0.95900000       2.82010000
H       -4.33200000       0.24590000       0.76170000
H       -4.25010000      -1.42540000       1.40540000
