21
Properties=species:S:1:pos:R:3 gdb_30718=T pbc="F F F"
C        0.26840000       1.60990000      -0.21860000
C       -0.05340000       0.12940000       0.05250000
C        0.54770000      -0.38710000       1.31510000
C        0.03490000      -0.83650000       2.49680000
C       -1.40450000      -0.95960000       2.89170000
C        1.16900000      -1.18440000       3.32480000
C        1.12760000      -1.72940000       4.71780000
C        2.26660000      -0.91410000       2.57440000
O        1.91460000      -0.42980000       1.35240000
H        1.34930000       1.76570000      -0.27090000
H       -0.17060000       1.93610000      -1.16650000
H       -0.12480000       2.24760000       0.57910000
H       -1.13730000      -0.01400000       0.10140000
H        0.30110000      -0.47590000      -0.79230000
H       -1.66550000      -1.99320000       3.14940000
H       -1.63570000      -0.34650000       3.77140000
H       -2.07310000      -0.64290000       2.08710000
H        0.58250000      -2.67990000       4.76470000
H        2.13560000      -1.90630000       5.10340000
H        0.62410000      -1.04120000       5.40740000
H        3.32510000      -1.00900000       2.75680000
