21
Properties=species:S:1:pos:R:3 gdb_82836=T pbc="F F F"
C       -0.18900000       1.55380000       0.10030000
C        0.07380000       0.06060000      -0.00700000
C        0.76750000      -0.55000000      -1.26310000
C        2.09680000       0.15370000      -1.64710000
C        2.77860000      -0.50510000      -0.42960000
O        2.41670000       0.14870000       0.80820000
C        1.16990000      -0.58080000       0.87980000
C        1.58830000      -1.50770000      -0.30130000
C        1.63790000      -3.00620000      -0.32610000
H        0.74900000       2.11460000       0.07660000
H       -0.82410000       1.90660000      -0.71970000
H       -0.69480000       1.79590000       1.04170000
H       -0.85230000      -0.50530000       0.16130000
H        0.12450000      -0.89750000      -2.07300000
H        2.49530000      -0.26460000      -2.57800000
H        2.12400000       1.24500000      -1.70700000
H        3.84270000      -0.75260000      -0.46430000
H        0.93440000      -0.88320000       1.90390000
H        0.64270000      -3.44010000      -0.17440000
H        2.01420000      -3.37660000      -1.28680000
H        2.29430000      -3.39410000       0.46140000
