15
Properties=species:S:1:pos:R:3 gdb_32359=T pbc="F F F"
C        0.07990000       1.40640000       0.00650000
O        0.01940000      -0.00830000       0.00260000
C       -1.21720000      -0.57110000       0.01090000
C       -2.40000000       0.08790000       0.02240000
O       -3.58770000      -0.56120000       0.03000000
C       -3.69880000      -1.95450000       0.02700000
O       -4.80150000      -2.43410000       0.03310000
C       -2.42990000      -2.66260000       0.01400000
C       -1.25030000      -2.00440000       0.00660000
H        1.13820000       1.66930000      -0.00130000
H       -0.40760000       1.82880000      -0.88230000
H       -0.39310000       1.82330000       0.90570000
H       -2.52700000       1.16090000       0.02660000
H       -2.49170000      -3.74320000       0.01070000
H       -0.30190000      -2.53200000      -0.00290000
