13
Properties=species:S:1:pos:R:3 gdb_25274=T pbc="F F F"
O       -0.05430000      -0.05000000       0.00350000
C       -0.02270000       1.14870000       0.00930000
C       -1.20580000       2.13680000       0.03190000
O       -0.64900000       3.46470000       0.03040000
C        0.68590000       3.31770000       0.00970000
N        1.65680000       4.16500000      -0.00040000
C        2.79150000       3.33690000      -0.02160000
C        2.47600000       2.01140000      -0.02370000
N        1.07820000       1.99560000      -0.00290000
H       -1.83660000       2.00480000      -0.85120000
H       -1.81010000       1.99570000       0.93200000
H        3.77790000       3.77460000      -0.03410000
H        3.06030000       1.10890000      -0.03710000
