12
Properties=species:S:1:pos:R:3 gdb_129322=T pbc="F F F"
N        0.14570000       1.42300000      -0.13560000
C        0.07790000       0.16170000      -0.23690000
O        1.14070000      -0.59760000      -0.67850000
N        1.07080000      -2.04830000      -0.79780000
N        0.02660000      -2.61910000      -0.49400000
C       -1.10270000      -1.93120000      -0.03650000
C       -1.12240000      -0.59500000       0.10230000
C       -2.35130000       0.10490000       0.59540000
O       -3.35790000      -0.49610000       0.88370000
H        1.06210000       1.77260000      -0.41710000
H       -1.95900000      -2.55010000       0.19770000
H       -2.26300000       1.20080000       0.67370000
