18
Properties=species:S:1:pos:R:3 gdb_93450=T pbc="F F F"
C        0.03440000       1.56420000       0.01570000
C        0.05940000       0.03670000      -0.03260000
N        0.87390000      -0.44880000      -1.14480000
C        0.84930000      -1.89930000      -1.27840000
C        1.38450000      -2.56350000      -0.00940000
O        1.51900000      -3.75680000       0.08760000
C        1.70180000      -1.58970000       1.11900000
C        0.60550000      -0.54260000       1.28170000
O        0.17950000      -0.20250000       2.35720000
H        1.05320000       1.96210000       0.03800000
H       -0.47570000       1.97160000      -0.86290000
H       -0.49420000       1.89340000       0.91200000
H       -0.98650000      -0.32860000      -0.08930000
H        0.58580000      -0.00550000      -2.00910000
H       -0.15660000      -2.32400000      -1.45860000
H        1.48000000      -2.20950000      -2.11750000
H        1.89320000      -2.11270000       2.05540000
H        2.60460000      -1.04200000       0.81010000
