19
Properties=species:S:1:pos:R:3 gdb_82475=T pbc="F F F"
C        0.02260000       1.54070000      -0.02090000
C        0.07800000       0.01810000       0.01310000
C        1.08700000      -0.63360000      -0.96070000
O        2.34630000      -0.01460000      -0.56240000
C        2.24920000      -0.81620000       0.62130000
C        3.46360000      -0.91360000       1.48860000
C        1.45430000      -1.92050000      -0.08960000
O        0.51040000      -2.05720000       0.97130000
C        0.76650000      -0.64330000       1.22790000
H        1.02390000       1.97110000       0.04420000
H       -0.43740000       1.89480000      -0.94960000
H       -0.57710000       1.92400000       0.81150000
H       -0.91910000      -0.42030000      -0.09020000
H        0.91470000      -0.63010000      -2.03520000
H        3.69380000       0.05630000       1.94210000
H        3.28880000      -1.63610000       2.29120000
H        4.33200000      -1.23570000       0.90680000
H        1.81940000      -2.84150000      -0.54100000
H        0.53810000      -0.32630000       2.24450000
