18
Properties=species:S:1:pos:R:3 gdb_85562=T pbc="F F F"
C        0.57770000       1.34990000      -0.38410000
C       -0.04820000       0.06000000       0.15360000
O       -0.12790000      -0.91450000      -0.92010000
C        0.89590000      -1.75370000      -1.18750000
O        0.96830000      -2.35010000      -2.23070000
N        1.81550000      -1.90090000      -0.16480000
C        1.58730000      -1.42970000       1.13110000
C        0.67130000      -0.48950000       1.36100000
C        0.33650000       0.04770000       2.71920000
H        1.62620000       1.18690000      -0.65060000
H        0.03640000       1.69120000      -1.27050000
H        0.53540000       2.13730000       0.37490000
H       -1.09920000       0.24800000       0.39990000
H        2.49720000      -2.62280000      -0.32920000
H        2.19000000      -1.88650000       1.90760000
H        0.95890000      -0.41330000       3.49120000
H        0.48430000       1.13370000       2.77750000
H       -0.71370000      -0.14000000       2.97800000
