23
Properties=species:S:1:pos:R:3 gdb_109380=T pbc="F F F"
C       -0.27260000       1.51580000      -0.03980000
C        0.12520000       0.03340000       0.07860000
C        0.78040000      -0.51350000      -1.16850000
C        2.05770000      -0.90260000      -1.16840000
C        2.78670000      -1.36440000      -2.39830000
O        2.08010000      -1.09830000      -3.59330000
C        0.71640000      -1.45010000      -3.48440000
C       -0.02920000      -0.58680000      -2.45630000
C       -1.44990000      -1.13970000      -2.25640000
H        0.60300000       2.13720000      -0.25260000
H       -0.99790000       1.67850000      -0.84330000
H       -0.72460000       1.87160000       0.89130000
H        0.81520000      -0.08680000       0.92110000
H       -0.76870000      -0.55320000       0.32660000
H        2.63910000      -0.88020000      -0.24860000
H        3.74750000      -0.84280000      -2.48880000
H        3.02010000      -2.44370000      -2.32010000
H        0.28390000      -1.32220000      -4.48160000
H        0.61480000      -2.51450000      -3.20760000
H       -0.11690000       0.42790000      -2.87120000
H       -1.42620000      -2.12860000      -1.78530000
H       -2.06190000      -0.48480000      -1.63110000
H       -1.95870000      -1.24090000      -3.22130000
