21
Properties=species:S:1:pos:R:3 gdb_69315=T pbc="F F F"
C       -0.11270000       1.55410000       0.05120000
C        0.12100000       0.07240000      -0.02460000
O       -0.71850000      -0.75170000       0.83360000
C        0.69610000      -0.77780000       1.03290000
C        1.42230000      -1.97060000       0.39360000
C        2.93330000      -1.87260000       0.66880000
C        0.86230000      -3.31580000       0.88790000
C        1.12210000      -1.74570000      -1.08410000
C        0.44000000      -0.62310000      -1.31460000
H        0.74120000       2.10380000      -0.35870000
H       -1.00070000       1.83620000      -0.52560000
H       -0.26830000       1.86610000       1.08670000
H        1.04060000      -0.38810000       1.98970000
H        3.13960000      -1.98280000       1.73980000
H        3.47810000      -2.66170000       0.14030000
H        3.33450000      -0.90900000       0.33960000
H       -0.22270000      -3.34290000       0.76510000
H        1.29860000      -4.14960000       0.32730000
H        1.09520000      -3.46920000       1.94730000
H        1.42190000      -2.46820000      -1.83700000
H        0.11880000      -0.25480000      -2.28210000
