20
Properties=species:S:1:pos:R:3 gdb_100262=T pbc="F F F"
C       -0.46110000       1.57510000      -0.13880000
C       -0.02100000       0.10780000      -0.06170000
C        0.87780000      -0.08050000       1.18750000
O        1.09350000      -1.44180000       1.54390000
C       -1.25460000      -0.83140000       0.04250000
O       -1.77380000      -0.93320000       1.36700000
C        0.73050000      -0.26680000      -1.36180000
N        1.45960000      -1.41370000      -1.27980000
O        0.64320000       0.39150000      -2.38250000
H        0.39490000       2.25160000      -0.05100000
H       -0.93990000       1.77680000      -1.09780000
H       -1.15760000       1.81900000       0.67240000
H        1.86540000       0.35330000       1.00280000
H        0.43210000       0.46290000       2.02990000
H        0.24790000      -1.75740000       1.88890000
H       -2.02710000      -0.50160000      -0.66460000
H       -0.97380000      -1.85090000      -0.23000000
H       -2.16130000      -0.08660000       1.61130000
H        1.58620000      -1.87980000      -0.39170000
H        2.00450000      -1.68260000      -2.08260000
