15
Properties=species:S:1:pos:R:3 gdb_127992=T pbc="F F F"
C        0.00970000       1.43410000       0.07240000
N        0.00840000      -0.01570000      -0.00970000
C        0.55410000      -0.68980000       0.90430000
O        1.15230000       0.01300000       1.99510000
N        1.78340000      -0.63720000       3.02220000
C        1.80960000      -1.91710000       2.96910000
C        1.19280000      -2.66290000       1.87660000
N        1.29320000      -4.01670000       1.89110000
N        0.59200000      -2.06330000       0.90230000
H        1.02630000       1.84810000       0.10910000
H       -0.49390000       1.83680000      -0.80980000
H       -0.51530000       1.79930000       0.96540000
H        2.32080000      -2.40890000       3.79110000
H        1.55140000      -4.50090000       2.73300000
H        0.76470000      -4.52430000       1.19880000
