18
Properties=species:S:1:pos:R:3 gdb_65440=T pbc="F F F"
C        0.03350000       1.48880000       0.32210000
C        0.07650000      -0.01620000       0.10410000
C        1.39640000      -0.64150000      -0.35700000
C        0.93410000      -0.87600000       1.03700000
O        1.68080000      -0.25280000       2.04740000
C        1.08300000      -0.17150000       3.26060000
N        1.68460000       0.39120000       4.21420000
C       -1.14120000      -0.61790000      -0.36800000
C       -2.16560000      -1.11890000      -0.75210000
H        0.97400000       1.84370000       0.74840000
H       -0.13880000       2.00520000      -0.62660000
H       -0.77740000       1.75960000       1.00500000
H        1.36250000      -1.46610000      -1.05810000
H        2.22770000       0.04350000      -0.48030000
H        0.55010000      -1.85710000       1.30330000
H        0.08750000      -0.63350000       3.28700000
H        1.11060000       0.36000000       5.05430000
H       -3.06870000      -1.55790000      -1.09700000
