19
Properties=species:S:1:pos:R:3 gdb_126168=T pbc="F F F"
C       -0.01980000       1.58880000       0.00880000
C       -0.03850000       0.08020000       0.26590000
C       -1.36270000      -0.58320000      -0.14250000
O       -1.61940000      -0.44230000      -1.54250000
C       -1.37170000      -2.05760000       0.14190000
C       -1.01610000      -2.81050000       1.24690000
C       -1.29150000      -4.14250000       0.87240000
N       -1.77630000      -4.22320000      -0.36440000
N       -1.81950000      -2.94380000      -0.77870000
H        0.92620000       2.03030000       0.33390000
H       -0.13070000       1.81210000      -1.05770000
H       -0.82610000       2.09850000       0.54970000
H        0.77230000      -0.41060000      -0.28320000
H        0.13070000      -0.11920000       1.33030000
H       -2.17880000      -0.10550000       0.42590000
H       -1.90380000       0.46060000      -1.70630000
H       -0.62390000      -2.45220000       2.18480000
H       -1.15380000      -5.04310000       1.45290000
H       -2.12820000      -2.71090000      -1.70760000
