20
Properties=species:S:1:pos:R:3 gdb_85434=T pbc="F F F"
C        0.54070000       1.53500000      -0.21820000
C       -0.05250000       0.15180000       0.07740000
C        0.30950000      -0.88190000      -1.00780000
C        1.61240000      -1.46950000      -0.50840000
N        2.46430000      -2.09350000      -1.19930000
O        1.73410000      -1.21220000       0.83200000
C        0.58170000      -0.51050000       1.29580000
C        0.67140000       0.06460000       2.66710000
C       -0.19330000      -1.15990000       2.40570000
H        1.62640000       1.47810000      -0.34960000
H        0.11210000       1.95030000      -1.13570000
H        0.33880000       2.23640000       0.59680000
H       -1.13470000       0.23650000       0.20860000
H       -0.43870000      -1.68080000      -1.05790000
H        0.42250000      -0.46660000      -2.00990000
H        3.24460000      -2.39870000      -0.61480000
H        1.59990000      -0.08590000       3.20580000
H        0.18310000       1.01390000       2.86010000
H       -1.27220000      -1.04600000       2.42180000
H        0.17370000      -2.11250000       2.77080000
