20
Properties=species:S:1:pos:R:3 gdb_107131=T pbc="F F F"
C       -0.07520000       1.55420000      -0.15530000
C       -0.03840000       0.03520000       0.06040000
C        0.72780000      -0.38270000       1.28090000
N        0.49820000      -1.68820000       1.95810000
C        0.35990000      -0.41140000       2.71200000
C        1.78820000       0.08940000       3.10620000
O        1.97330000       1.10400000       4.02680000
C        2.87590000      -0.82750000       2.62280000
C        2.17210000       0.10220000       1.64600000
H        0.93090000       1.96360000      -0.28700000
H       -0.65460000       1.80470000      -1.04890000
H       -0.53140000       2.06190000       0.70020000
H       -1.06450000      -0.34630000       0.14720000
H        0.39580000      -0.45130000      -0.82420000
H       -0.44470000      -1.99020000       1.70950000
H       -0.56060000      -0.13450000       3.21170000
H        2.11680000       0.70090000       4.89080000
H        3.87050000      -0.48070000       2.88810000
H        2.74340000      -1.90050000       2.57060000
H        2.70580000       0.86410000       1.09380000
