21
Properties=species:S:1:pos:R:3 gdb_105513=T pbc="F F F"
C        0.54640000      -1.13770000      -1.69780000
C        0.19230000      -0.35650000      -0.42480000
O        0.63580000       0.98630000      -0.50980000
C       -1.29780000      -0.45600000      -0.06360000
C       -2.23220000       0.26160000      -1.04320000
O       -2.04340000       1.66990000      -0.95860000
C       -1.79870000      -1.83990000       0.41200000
C       -2.15550000      -1.11120000       1.72150000
O       -1.55190000       0.11850000       1.25910000
H        1.62550000      -1.07940000      -1.86040000
H        0.26610000      -2.19450000      -1.62640000
H        0.05700000      -0.71010000      -2.57900000
H        0.74100000      -0.79770000       0.41800000
H       -0.07300000       1.50430000      -0.91790000
H       -2.03560000      -0.02730000      -2.07970000
H       -3.27510000      -0.00320000      -0.81380000
H       -2.10250000       1.87240000      -0.01350000
H       -2.63020000      -2.26750000      -0.15140000
H       -1.01100000      -2.58820000       0.51260000
H       -3.22880000      -0.99380000       1.91460000
H       -1.67130000      -1.48030000       2.63160000
