18
Properties=species:S:1:pos:R:3 gdb_26289=T pbc="F F F"
C        0.12480000       1.42570000       0.02490000
N        0.08680000      -0.02220000      -0.03350000
C        0.12550000      -0.70620000       1.24400000
C        0.01920000      -0.69940000      -1.21770000
N       -0.01140000      -2.04860000      -1.16340000
C       -0.07710000      -2.68640000      -2.32540000
C       -0.11430000      -2.03550000      -3.55400000
C       -0.07770000      -0.64650000      -3.49190000
N       -0.01200000       0.03160000      -2.35290000
H        1.04280000       1.76510000       0.52340000
H        0.09150000       1.83070000      -0.98330000
H       -0.72950000       1.80870000       0.59940000
H       -0.72890000      -0.40570000       1.86560000
H        0.09270000      -1.78050000       1.08180000
H        1.04350000      -0.44820000       1.78910000
H       -0.10120000      -3.77370000      -2.26930000
H       -0.16800000      -2.57180000      -4.49190000
H       -0.10230000      -0.04670000      -4.40060000
