18
Properties=species:S:1:pos:R:3 gdb_49424=T pbc="F F F"
O       -0.25690000       0.02890000      -0.04930000
C       -0.04550000       1.21260000      -0.09520000
C        1.29520000       1.90190000       0.01910000
C        1.48190000       2.65980000       1.35590000
C        2.21940000       1.68840000       2.25030000
C        2.40850000       0.42190000       1.40710000
N        2.49590000       1.03230000       0.04630000
C        3.55570000       2.05620000       0.27340000
C        2.98490000       2.76360000       1.50950000
H       -0.88350000       1.93810000      -0.22650000
H        1.36260000       2.59290000      -0.83270000
H        0.79540000       3.40910000       1.72490000
H        2.10120000       1.68530000       3.32490000
H        3.34030000      -0.10620000       1.62840000
H        1.57660000      -0.27890000       1.45340000
H        4.51680000       1.56650000       0.45320000
H        3.65010000       2.70760000      -0.60060000
H        3.46310000       3.59870000       2.00310000
