16
Properties=species:S:1:pos:R:3 gdb_51591=T pbc="F F F"
O       -0.74020000       0.55600000       0.27460000
C       -0.06390000       1.54800000       0.21010000
C        1.35370000       1.58040000      -0.34320000
C        1.50320000       2.65660000      -1.39780000
O        1.50140000       4.01990000      -0.94970000
C        2.68120000       3.52270000      -1.57200000
C        3.93400000       3.42610000      -0.71570000
C        4.63980000       4.70570000      -0.63850000
N        5.19750000       5.71600000      -0.59200000
H       -0.43780000       2.53300000       0.56450000
H        2.02540000       1.77720000       0.50050000
H        1.58820000       0.59440000      -0.75530000
H        0.89340000       2.49200000      -2.28800000
H        2.86290000       3.92410000      -2.56950000
H        3.68480000       3.10330000       0.29820000
H        4.61400000       2.67950000      -1.14350000
