14
Properties=species:S:1:pos:R:3 gdb_25412=T pbc="F F F"
N       -0.00460000       1.33640000       0.00990000
C       -0.03340000       0.07170000       0.00340000
O        1.18120000      -0.65580000      -0.00760000
C        1.19190000      -1.98990000      -0.01460000
C        0.07360000      -2.75200000      -0.01190000
C        0.18090000      -4.21370000      -0.02010000
O       -0.76890000      -4.96450000      -0.01800000
C       -1.20270000      -2.07290000      -0.00070000
C       -1.24510000      -0.72810000       0.00660000
H        0.95280000       1.68780000       0.00590000
H        2.20090000      -2.39040000      -0.02280000
H        1.22420000      -4.60080000      -0.02810000
H       -2.10060000      -2.68000000       0.00160000
H       -2.17100000      -0.16770000       0.01510000
