20
Properties=species:S:1:pos:R:3 gdb_112584=T pbc="F F F"
C        0.15510000       1.41910000       0.38830000
C        0.07550000      -0.07460000       0.05900000
C       -1.34120000      -0.52980000      -0.23120000
C       -1.63910000      -2.04140000      -0.30820000
C       -2.67920000      -1.75450000       0.81130000
C       -2.55280000      -2.51870000       2.12220000
O       -2.21880000      -0.39050000       0.92640000
C       -4.07220000      -1.79090000       0.32260000
N       -5.15950000      -1.82890000      -0.06720000
H        1.18170000       1.71690000       0.61960000
H       -0.18960000       2.02890000      -0.45380000
H       -0.47220000       1.65500000       1.25250000
H        0.69360000      -0.30680000      -0.81860000
H        0.47180000      -0.66680000       0.89320000
H       -1.75670000       0.03230000      -1.07860000
H       -2.03170000      -2.42320000      -1.24980000
H       -0.81870000      -2.67460000       0.03620000
H       -1.51430000      -2.48800000       2.46060000
H       -3.18620000      -2.06320000       2.88820000
H       -2.85880000      -3.56100000       1.99170000
