21
Properties=species:S:1:pos:R:3 gdb_90471=T pbc="F F F"
C       -0.76230000       1.05900000      -0.07180000
C        0.26080000      -0.07590000       0.01450000
C        1.27310000      -0.08510000      -1.16550000
C        2.61880000      -0.50410000      -0.58920000
C        2.53260000      -0.46810000       0.90490000
C        1.13080000      -0.02570000       1.30200000
C        2.76650000      -1.80870000       0.20060000
C        1.81870000      -2.94450000       0.17320000
O        2.17470000      -4.09950000       0.22170000
H       -0.26470000       2.03580000      -0.06670000
H       -1.35540000       0.99050000      -0.99000000
H       -1.45710000       1.03300000       0.77430000
H       -0.29770000      -1.01740000       0.00500000
H        0.93450000      -0.71690000      -1.99350000
H        1.38180000       0.92880000      -1.57050000
H        3.51310000      -0.18590000      -1.11390000
H        3.36170000      -0.12280000       1.51290000
H        1.19520000       1.00680000       1.66760000
H        0.69770000      -0.61790000       2.11500000
H        3.79010000      -2.16550000       0.26820000
H        0.73970000      -2.69710000       0.10470000
