16
Properties=species:S:1:pos:R:3 gdb_53056=T pbc="F F F"
C       -0.09290000       1.44580000       0.01080000
C       -0.01170000      -0.00520000       0.00310000
C        0.06890000      -1.21020000      -0.00350000
C        0.11790000      -2.61860000      -0.01130000
C        1.18920000      -3.43230000      -0.02200000
C        0.75220000      -4.85560000      -0.02700000
O        1.43160000      -5.86040000      -0.03700000
N       -0.62830000      -4.80020000      -0.01780000
C       -1.15050000      -3.45830000      -0.00810000
H        0.90400000       1.89910000       0.00410000
H       -0.63510000       1.81570000      -0.86660000
H       -0.61930000       1.80710000       0.90140000
H        2.23000000      -3.14520000      -0.02680000
H       -1.19120000      -5.63310000      -0.02030000
H       -1.75790000      -3.24350000       0.88210000
H       -1.76820000      -3.23460000      -0.88900000
