19
Properties=species:S:1:pos:R:3 gdb_91515=T pbc="F F F"
C       -0.36060000       1.35510000      -0.48770000
C        0.02610000      -0.08970000      -0.21270000
C        1.41600000      -0.61340000      -0.73650000
C        1.79770000      -0.93630000       0.71090000
O        1.72060000       0.26330000       1.46860000
C        0.48790000      -0.43400000       1.21520000
C       -0.33880000      -0.90290000       2.35830000
C        0.33330000      -0.98500000       3.71200000
O       -1.50170000      -1.19560000       2.17530000
H        0.42080000       2.03580000      -0.13740000
H       -0.50420000       1.52330000      -1.56010000
H       -1.29570000       1.61220000       0.02040000
H       -0.77280000      -0.77530000      -0.50430000
H        1.32740000      -1.49780000      -1.37080000
H        2.06440000       0.12190000      -1.21970000
H        2.42900000      -1.72830000       1.09930000
H        0.57090000       0.02390000       4.06550000
H       -0.33650000      -1.47660000       4.41830000
H        1.28410000      -1.52360000       3.65150000
