19
Properties=species:S:1:pos:R:3 gdb_97228=T pbc="F F F"
C        0.09490000       1.42990000       0.09720000
N        0.13930000      -0.02150000       0.05270000
C        0.54270000      -0.60900000      -0.98880000
O        0.98790000       0.05480000      -2.10270000
C        0.82380000      -0.64290000      -3.34510000
C        1.57170000      -1.96230000      -3.32270000
N        1.09010000      -2.81510000      -2.22290000
C        1.89030000      -2.81830000      -1.00580000
C        0.57980000      -2.10310000      -1.03840000
H        0.96620000       1.80820000       0.64660000
H        0.08350000       1.90680000      -0.88940000
H       -0.79300000       1.73790000       0.65850000
H       -0.24520000      -0.80680000      -3.53460000
H        1.21320000       0.02520000      -4.11690000
H        1.41470000      -2.49190000      -4.26960000
H        2.64710000      -1.76440000      -3.22900000
H        1.96920000      -3.77080000      -0.48900000
H        2.79160000      -2.20790000      -0.98410000
H       -0.27290000      -2.56880000      -0.55530000
