19
Properties=species:S:1:pos:R:3 gdb_49784=T pbc="F F F"
O        1.01910000      -0.43480000       0.02430000
C        0.44630000       0.62090000       0.10150000
C        1.11940000       1.98540000       0.00330000
C        0.57950000       2.74450000      -1.18690000
C        0.30050000       4.04690000      -1.18180000
C        0.47810000       4.95370000       0.00440000
C        0.63660000       4.21470000       1.32130000
C       -0.41640000       3.22990000       1.75730000
C        0.94720000       2.73580000       1.31910000
H       -0.65500000       0.66970000       0.26050000
H        2.18620000       1.77950000      -0.15710000
H        0.45160000       2.17180000      -2.10240000
H       -0.05110000       4.51480000      -2.09830000
H        1.36360000       5.58320000      -0.16830000
H       -0.36630000       5.65440000       0.06330000
H        1.10320000       4.79640000       2.11030000
H       -0.66630000       3.16720000       2.81030000
H       -1.25600000       3.07090000       1.08870000
H        1.59490000       2.37430000       2.11170000
