15
Properties=species:S:1:pos:R:3 gdb_8170=T pbc="F F F"
O        0.04440000       1.41300000       0.00820000
C       -0.01580000       0.04410000       0.03800000
C        0.34870000      -0.84730000       1.28450000
C       -0.35730000      -1.90120000       0.40500000
C       -1.34160000      -0.80190000      -0.04830000
O        0.55140000      -2.00750000      -0.75110000
C        0.78920000      -0.68880000      -1.00770000
N        1.50040000      -0.14220000      -1.89100000
H        0.63250000       1.64120000      -0.72910000
H        1.40260000      -1.00810000       1.52000000
H       -0.22380000      -0.57160000       2.17130000
H       -0.64050000      -2.89690000       0.73020000
H       -2.06120000      -0.52230000       0.72250000
H       -1.82110000      -0.92150000      -1.02180000
H        1.96390000      -0.81440000      -2.50150000
