20
Properties=species:S:1:pos:R:3 gdb_112516=T pbc="F F F"
C       -0.04920000       1.50930000      -0.25400000
C        0.03320000       0.00610000       0.03030000
C       -1.34150000      -0.63940000       0.09540000
N       -2.10260000      -0.66600000      -1.18250000
C       -2.66340000      -1.99290000      -0.86590000
C       -2.73160000      -2.93300000      -1.98070000
N       -2.75120000      -3.71110000      -2.83580000
C       -1.48010000      -2.19170000       0.17360000
N       -0.31220000      -2.92480000      -0.24120000
H        0.94750000       1.95780000      -0.29590000
H       -0.53840000       1.69840000      -1.21530000
H       -0.61760000       2.03320000       0.52320000
H        0.63100000      -0.48440000      -0.74400000
H        0.54610000      -0.17310000       0.98280000
H       -1.91810000      -0.18180000       0.91590000
H       -2.78680000       0.06900000      -1.32420000
H       -3.63800000      -1.97400000      -0.35770000
H       -1.81400000      -2.57940000       1.13730000
H       -0.49770000      -3.92280000      -0.24180000
H       -0.04320000      -2.67750000      -1.18890000
