22
Properties=species:S:1:pos:R:3 gdb_7179=T pbc="F F F"
C        0.13090000       1.61650000       0.05910000
C       -0.01850000       0.09290000       0.00960000
C        0.61710000      -0.52130000      -1.24380000
C        0.59730000      -2.05980000      -1.29970000
C       -0.82750000      -2.63300000      -1.33660000
C        1.41580000      -2.56070000      -2.51030000
C        1.66370000      -4.05030000      -2.46590000
O        1.39890000      -4.83030000      -3.34420000
H        1.18620000       1.91160000       0.05690000
H       -0.34490000       2.08930000      -0.80730000
H       -0.32980000       2.03350000       0.95990000
H        0.44320000      -0.34960000       0.90260000
H       -1.08270000      -0.16560000       0.05670000
H        0.11590000      -0.12420000      -2.13830000
H        1.66030000      -0.18270000      -1.30770000
H        1.09280000      -2.43170000      -0.38970000
H       -0.81840000      -3.72550000      -1.40760000
H       -1.39400000      -2.36580000      -0.44080000
H       -1.37510000      -2.25340000      -2.20750000
H        0.92500000      -2.31310000      -3.45720000
H        2.40170000      -2.07300000      -2.50110000
H        2.13490000      -4.40100000      -1.51550000
