18
Properties=species:S:1:pos:R:3 gdb_73766=T pbc="F F F"
C        0.14460000       1.51810000       0.11460000
C        0.05440000       0.03200000       0.00230000
C       -0.05950000      -0.73850000      -1.09760000
C       -0.06780000      -0.37750000      -2.54680000
C       -0.08140000      -2.16800000      -0.68080000
O       -0.05670000      -3.14000000      -1.39130000
N       -0.10810000      -2.22630000       0.76800000
C        1.17580000      -1.82370000       1.37560000
C        0.05740000      -0.84370000       1.21290000
H        1.06170000       1.81540000       0.63760000
H        0.13020000       2.00760000      -0.86120000
H       -0.69220000       1.91290000       0.70420000
H        0.16650000       0.67600000      -2.71650000
H        0.65560000      -0.99280000      -3.09170000
H       -1.04690000      -0.58700000      -2.99280000
H        1.37910000      -2.25950000       2.34980000
H        2.03590000      -1.72230000       0.71830000
H       -0.51220000      -0.53870000       2.08740000
