13
Properties=species:S:1:pos:R:3 gdb_132015=T pbc="F F F"
C       -0.03560000       1.54390000       0.02480000
C       -0.00490000       0.04620000      -0.01790000
C       -0.15540000      -0.67280000      -1.13790000
F       -0.34790000      -0.17640000      -2.33740000
O       -0.13120000      -2.01650000      -1.19850000
C        0.06370000      -2.66070000      -0.00710000
N        0.22100000      -2.12680000       1.12730000
C        0.20180000      -0.70370000       1.23320000
O        0.34920000      -0.15970000       2.30350000
H        0.90350000       1.92690000       0.43570000
H       -0.19450000       1.97330000      -0.96550000
H       -0.83080000       1.88380000       0.69530000
H        0.06600000      -3.73390000      -0.16830000
