18
Properties=species:S:1:pos:R:3 gdb_47440=T pbc="F F F"
O        0.27800000       0.02890000       0.38290000
C        0.08970000       1.18740000       0.12990000
C       -1.24620000       1.85640000      -0.19460000
O       -0.93460000       3.18710000      -0.55960000
C        0.26000000       3.55650000       0.13090000
C        1.14910000       2.30700000       0.09070000
N        2.08190000       2.20960000       1.19070000
C        3.14600000       1.21760000       1.05310000
C        3.45030000       2.66870000       0.94090000
H       -1.76740000       1.36030000      -1.01830000
H       -1.88990000       1.80820000       0.70010000
H        0.67970000       4.42380000      -0.38190000
H        0.05580000       3.82230000       1.17920000
H        1.63560000       2.23830000      -0.90210000
H        3.38930000       0.66940000       1.95760000
H        3.17320000       0.62420000       0.14290000
H        3.68410000       3.05770000      -0.04880000
H        3.91980000       3.20200000       1.76180000
