19
Properties=species:S:1:pos:R:3 gdb_9643=T pbc="F F F"
C       -0.25590000       1.52240000       0.18080000
C        0.23580000       0.10760000      -0.14870000
C        0.93650000      -0.52710000       1.03180000
N        0.09870000      -1.12950000       2.07680000
C        1.00850000      -2.00660000       1.29170000
C        0.33300000      -3.03440000       0.40150000
C        2.20240000      -2.47710000       1.95270000
C        3.18560000      -2.88850000       2.51150000
H        0.57680000       2.17870000       0.45730000
H       -0.76480000       1.97300000      -0.67650000
H       -0.95810000       1.49840000       1.01980000
H       -0.61340000      -0.51090000      -0.45170000
H        0.92940000       0.13970000      -0.99860000
H        1.81120000       0.02680000       1.37240000
H        0.49530000      -0.96090000       2.99770000
H       -0.60300000      -2.64380000       0.00040000
H        0.98730000      -3.31850000      -0.42840000
H        0.10490000      -3.93580000       0.97800000
H        4.05740000      -3.24570000       3.00120000
