18
Properties=species:S:1:pos:R:3 gdb_17055=T pbc="F F F"
C       -0.14340000       1.55510000       0.76160000
C       -0.09710000       0.10910000       0.30360000
C        1.04590000      -0.34410000      -0.65230000
O        2.00910000      -0.17130000       0.46060000
C        0.84350000      -0.88720000       1.04030000
C        0.87490000      -1.82070000      -0.20160000
C       -0.28200000      -2.70850000      -0.61390000
O       -0.31040000      -3.79720000       0.30140000
H        0.86040000       1.91620000       0.99230000
H       -0.57690000       2.19540000      -0.01460000
H       -0.76730000       1.65880000       1.65610000
H       -1.09340000      -0.27190000       0.06430000
H        1.33470000       0.05260000      -1.62750000
H        0.89120000      -1.14730000       2.09800000
H        1.81750000      -2.36990000      -0.25580000
H       -1.23920000      -2.16870000      -0.61360000
H       -0.10850000      -3.05830000      -1.64460000
H       -0.99400000      -4.41100000       0.01700000
