19
Properties=species:S:1:pos:R:3 gdb_38887=T pbc="F F F"
C       -0.02360000       1.54800000      -0.02570000
C        1.29020000       0.80150000       0.00810000
C        2.16090000       0.79870000       1.27470000
C        2.05640000      -0.58770000       1.90930000
O        2.25640000      -0.70090000       3.35010000
C        0.95360000      -1.32570000       3.52120000
C        0.62100000      -0.99230000       2.08960000
C       -0.38240000      -0.66760000       1.28770000
C       -0.02400000       0.03300000       0.01990000
H       -0.31620000       2.07520000       0.87700000
H       -0.32320000       2.03530000      -0.94780000
H        1.84090000       0.76900000      -0.92640000
H        3.19310000       1.07030000       1.03270000
H        1.79340000       1.52630000       2.00490000
H        2.69070000      -1.31530000       1.38230000
H        1.04890000      -2.39550000       3.75570000
H        0.35360000      -0.84210000       4.30170000
H       -1.42750000      -0.82760000       1.54100000
H       -0.30510000      -0.46440000      -0.90510000
