15
Properties=species:S:1:pos:R:3 gdb_20840=T pbc="F F F"
C        0.22110000       1.02470000      -0.75910000
C       -0.22140000       0.32850000       0.53930000
C       -1.53870000      -0.36110000       0.42430000
N       -2.60640000      -0.02940000       1.08600000
N       -3.56780000      -0.91940000       0.65650000
C       -3.12250000      -1.82710000      -0.27940000
O       -3.70780000      -2.72580000      -0.84230000
N       -1.78410000      -1.42880000      -0.41140000
H        1.18690000       1.51720000      -0.61690000
H        0.32950000       0.31300000      -1.58400000
H       -0.50830000       1.78080000      -1.06300000
H        0.54300000      -0.39660000       0.84730000
H       -0.31640000       1.05690000       1.34870000
H       -4.49840000      -0.87850000       1.03200000
H       -1.13800000      -1.89000000      -1.02770000
