19
Properties=species:S:1:pos:R:3 gdb_7443=T pbc="F F F"
C       -0.07360000       1.55650000      -0.03520000
C        0.02410000       0.02580000      -0.04290000
C        0.71390000      -0.48460000      -1.31430000
C        0.77830000      -0.50110000       1.20540000
O        2.09470000      -0.01620000       1.24530000
C        0.08530000      -0.10560000       2.51950000
N       -1.14780000      -0.62150000       2.74220000
O        0.64460000       0.64490000       3.30390000
H        0.92730000       1.99600000      -0.00330000
H       -0.57650000       1.91580000      -0.93810000
H       -0.63250000       1.92710000       0.83000000
H       -0.99270000      -0.39220000      -0.01200000
H        1.74720000      -0.12880000      -1.35290000
H        0.73380000      -1.57950000      -1.34650000
H        0.19350000      -0.12980000      -2.20950000
H        0.79750000      -1.60290000       1.15210000
H        2.13330000       0.51630000       2.05910000
H       -1.57140000      -1.28230000       2.11500000
H       -1.61750000      -0.39910000       3.60450000
