21
Properties=species:S:1:pos:R:3 gdb_77239=T pbc="F F F"
C        0.05160000       1.55790000      -0.02910000
C        0.02450000       0.04220000      -0.00100000
C       -1.12390000      -0.57510000      -0.77740000
C        1.33790000      -0.69930000       0.00460000
O        2.51610000       0.04210000       0.00400000
C        0.47710000      -0.71020000       1.25230000
C        0.92000000      -0.00830000       2.52240000
C        2.17880000      -0.55880000       3.16170000
O        3.11010000      -1.04510000       2.56280000
H        0.99620000       1.95450000       0.34640000
H       -0.05460000       1.91260000      -1.06050000
H       -0.77410000       1.98530000       0.55200000
H       -1.09730000      -0.26400000      -1.82820000
H       -1.08570000      -1.66890000      -0.75260000
H       -2.09160000      -0.26750000      -0.36310000
H        1.38370000      -1.62780000      -0.56730000
H        3.07590000      -0.35550000       0.68870000
H       -0.04850000      -1.64250000       1.44510000
H        1.13480000       1.05410000       2.34120000
H        0.12120000      -0.01720000       3.27370000
H        2.22800000      -0.45910000       4.26830000
