21
Properties=species:S:1:pos:R:3 gdb_92602=T pbc="F F F"
C        0.31290000       1.50510000      -0.21950000
C        0.05850000       0.04350000       0.09060000
O        0.66180000      -0.84110000      -0.88760000
C        1.37240000      -1.57560000       0.12430000
C        2.87210000      -1.30520000       0.11190000
O        3.03310000      -0.02360000       0.71260000
C        2.07520000       0.05480000       1.76090000
C        0.81630000      -0.66500000       1.25680000
C       -0.04530000      -1.26360000       2.35560000
H        1.38450000       1.70720000      -0.28410000
H       -0.14540000       1.76070000      -1.18020000
H       -0.13340000       2.14850000       0.54710000
H       -1.02380000      -0.14430000       0.14540000
H        1.11380000      -2.64030000       0.12480000
H        3.39870000      -2.08050000       0.69430000
H        3.29030000      -1.26680000      -0.89680000
H        2.44930000      -0.44870000       2.66860000
H        1.92270000       1.11190000       1.99500000
H       -0.46400000      -0.48070000       2.99930000
H       -0.88330000      -1.83100000       1.93920000
H        0.53530000      -1.93880000       2.99360000
