19
Properties=species:S:1:pos:R:3 gdb_30820=T pbc="F F F"
C        0.24420000       1.58280000      -0.18020000
C       -0.06310000       0.09410000       0.07450000
C        0.59260000      -0.47720000       1.28850000
C        0.09050000      -0.86650000       2.50970000
N       -1.26500000      -0.88890000       2.90890000
C        1.17610000      -1.34370000       3.31690000
C        2.30860000      -1.22460000       2.54790000
O        3.61690000      -1.51460000       2.77350000
N        1.97440000      -0.70850000       1.33820000
H        1.31940000       1.74890000      -0.30740000
H       -0.25800000       1.94220000      -1.08490000
H       -0.08280000       2.19820000       0.66370000
H       -1.14660000      -0.04050000       0.17160000
H        0.21690000      -0.48390000      -0.81900000
H       -1.82430000      -0.21970000       2.39460000
H       -1.36390000      -0.68280000       3.89570000
H        1.11580000      -1.73310000       4.32180000
H        3.69040000      -1.89920000       3.65180000
H        2.62810000      -0.55120000       0.59190000
