18
Properties=species:S:1:pos:R:3 gdb_91277=T pbc="F F F"
C       -0.79800000       1.34620000       0.02660000
C       -0.02420000       0.05000000      -0.04880000
O        1.15830000       0.14550000      -0.88490000
C        1.98100000      -0.51560000       0.10060000
C        3.13130000       0.34550000       0.59930000
C        2.55740000       1.11830000       1.79520000
O        3.08790000       2.00780000       2.41850000
N        1.31320000       0.59020000       2.05860000
C        0.84250000      -0.42320000       1.15280000
H       -0.18270000       2.14640000       0.44540000
H       -1.11690000       1.64550000      -0.97640000
H       -1.69410000       1.22480000       0.64520000
H       -0.67050000      -0.76610000      -0.40460000
H        2.27070000      -1.52010000      -0.22300000
H        3.98960000      -0.24440000       0.93640000
H        3.47830000       1.03930000      -0.16940000
H        0.76150000       0.96900000       2.81230000
H        0.50940000      -1.32760000       1.66750000
