21
Properties=species:S:1:pos:R:3 gdb_70184=T pbc="F F F"
C       -0.20380000       1.56400000       0.08990000
C       -0.03590000       0.05900000       0.04190000
C       -0.84290000      -0.77700000       1.01230000
C        0.65220000      -0.63020000       1.19670000
C        1.60470000      -1.78070000       0.93330000
C        1.36250000      -2.59560000      -0.33760000
O        1.89600000      -3.66930000      -0.49330000
C        0.43570000      -2.01210000      -1.40040000
C        0.26070000      -0.48940000      -1.34850000
H        0.69000000       2.07500000      -0.28810000
H       -1.05350000       1.88770000      -0.52300000
H       -0.37960000       1.91240000       1.11250000
H       -1.49040000      -0.25340000       1.70770000
H       -1.23640000      -1.73720000       0.69630000
H        0.96050000       0.00720000       2.02140000
H        2.62830000      -1.38920000       0.83700000
H        1.63890000      -2.48630000       1.77090000
H        0.80230000      -2.34320000      -2.37620000
H       -0.53480000      -2.50860000      -1.26630000
H       -0.53540000      -0.19390000      -2.04360000
H        1.17630000      -0.00660000      -1.71820000
