18
Properties=species:S:1:pos:R:3 gdb_38080=T pbc="F F F"
C        0.48230000       1.84030000       1.01140000
C        1.49980000       1.44330000      -0.11590000
C        1.42530000       2.14370000      -1.43010000
C        1.19070000       1.57170000      -2.62110000
C        0.98570000       0.16570000      -2.98310000
C        0.85540000      -0.95150000      -2.24950000
C        0.85700000      -1.13100000      -0.75260000
C        0.74980000       0.13980000       0.01180000
N       -0.07890000       0.45500000       0.94540000
H        0.91310000       2.08980000       1.98570000
H       -0.25330000       2.59980000       0.73130000
H        2.53570000       1.40820000       0.24840000
H        1.57740000       3.22110000      -1.40170000
H        1.17450000       2.24030000      -3.47920000
H        0.93700000       0.01500000      -4.05980000
H        0.72890000      -1.88260000      -2.79760000
H        0.03650000      -1.79330000      -0.45140000
H        1.78450000      -1.65350000      -0.46590000
