15
Properties=species:S:1:pos:R:3 gdb_132580=T pbc="F F F"
C       -0.04270000       1.51300000      -0.02660000
C        0.01570000       0.00760000       0.01830000
N        0.11970000      -0.61700000      -1.16480000
C        0.17430000      -1.95010000      -1.16840000
C        0.12790000      -2.69880000      -0.00960000
F        0.18400000      -4.04570000      -0.02820000
C        0.02000000      -2.06920000       1.22920000
O       -0.02790000      -2.77220000       2.38090000
C       -0.03690000      -0.67950000       1.23260000
H        0.85520000       1.91340000      -0.50780000
H       -0.89840000       1.84190000      -0.62450000
H       -0.12680000       1.94680000       0.97250000
H        0.25860000      -2.45430000      -2.12790000
H        0.02500000      -3.71130000       2.16110000
H       -0.12100000      -0.15540000       2.17720000
