19
Properties=species:S:1:pos:R:3 gdb_36312=T pbc="F F F"
N       -0.90900000       1.17600000       2.54540000
C       -0.55850000       1.26920000       1.44890000
C       -0.13650000       1.40480000       0.04960000
N        1.18350000       2.01270000      -0.02410000
C        1.64580000       2.74900000      -1.19780000
C        0.65530000       3.27650000      -2.22760000
C       -0.34390000       4.18720000      -1.46120000
C        0.26480000       4.43670000      -0.05370000
C        1.41220000       3.44860000       0.10650000
H       -0.07140000       0.40100000      -0.38670000
H       -0.94040000       1.92890000      -0.48680000
H        2.63520000       2.46080000      -1.54420000
H        1.21810000       3.84880000      -2.97270000
H        0.14860000       2.47380000      -2.77560000
H       -0.50840000       5.12760000      -1.99360000
H       -1.32640000       3.71280000      -1.38350000
H        0.67560000       5.44890000       0.02410000
H       -0.47970000       4.34290000       0.74420000
H        2.21840000       3.70940000       0.78680000
