17
Properties=species:S:1:pos:R:3 gdb_71092=T pbc="F F F"
C        0.05390000       1.57720000       0.04830000
C       -0.04660000       0.08280000      -0.01300000
C        0.36780000      -0.74850000      -1.26920000
C       -0.56860000      -1.83300000      -0.74530000
C       -0.46990000      -1.75640000       0.78570000
N        0.46110000      -0.69690000       1.16270000
C       -1.37350000      -0.80220000       0.05040000
C       -2.74980000      -0.50670000       0.13710000
N       -3.87720000      -0.24500000       0.19430000
H        1.10510000       1.88690000       0.01660000
H       -0.46090000       2.03920000      -0.79930000
H       -0.38350000       1.95480000       0.97600000
H       -0.01330000      -0.30450000      -2.19210000
H        1.43450000      -0.97930000      -1.37700000
H       -0.96870000      -2.69580000      -1.26090000
H       -0.75120000      -2.56780000       1.44410000
H        1.44380000      -0.96140000       1.06450000
