18
Properties=species:S:1:pos:R:3 gdb_97130=T pbc="F F F"
C        0.05000000       1.30320000       0.11560000
N       -0.06980000      -0.13910000       0.28450000
C       -1.14970000      -0.70460000       0.00850000
O       -2.34530000      -0.19260000      -0.47360000
C       -2.92510000      -1.52850000      -0.55990000
C       -1.63270000      -2.14420000       0.02680000
C       -0.85530000      -3.15350000      -0.82330000
C        0.50590000      -3.47930000      -0.22980000
O        0.90720000      -4.60200000      -0.05760000
H        0.91000000       1.51630000      -0.52790000
H       -0.83990000       1.77760000      -0.31340000
H        0.25770000       1.76110000       1.08890000
H       -3.82640000      -1.60710000       0.05210000
H       -3.14510000      -1.79230000      -1.59810000
H       -1.76880000      -2.52290000       1.04390000
H       -1.41320000      -4.08740000      -0.94050000
H       -0.68720000      -2.72680000      -1.82240000
H        1.11550000      -2.59130000       0.03710000
