15
Properties=species:S:1:pos:R:3 gdb_10143=T pbc="F F F"
C       -0.10250000       1.36500000       0.01140000
O        0.03720000      -0.03980000      -0.00790000
C        0.65830000      -0.54790000       1.13990000
C        0.62380000      -2.09000000       1.03300000
C        1.40460000      -2.71220000       2.10130000
C        2.06300000      -3.19130000       2.98260000
C       -0.76470000      -2.58070000       1.03030000
N       -1.85250000      -2.96760000       1.03460000
H        0.87440000       1.86890000       0.06730000
H       -0.59780000       1.65110000      -0.91840000
H       -0.71580000       1.69790000       0.86180000
H        1.70970000      -0.22920000       1.21140000
H        0.14290000      -0.23010000       2.05880000
H        1.06140000      -2.34820000       0.05950000
H        2.63930000      -3.62910000       3.76040000
