21
Properties=species:S:1:pos:R:3 gdb_103582=T pbc="F F F"
C        0.11520000       1.56900000       0.00910000
C       -0.02240000       0.04290000      -0.00550000
C       -1.46900000      -0.52240000      -0.01390000
C       -2.24450000      -0.04050000      -1.25670000
C       -1.44330000      -2.07150000       0.08060000
C       -2.14410000      -2.44010000       1.39780000
O       -2.30390000      -3.55760000       1.83030000
C       -2.57950000      -1.16700000       2.01690000
C       -2.21640000      -0.13320000       1.25080000
H        1.17210000       1.85170000       0.03130000
H       -0.32600000       2.03090000      -0.87900000
H       -0.35800000       2.01570000       0.88950000
H        0.49430000      -0.35530000      -0.88840000
H        0.49800000      -0.37140000       0.86680000
H       -1.70540000      -0.30420000      -2.17310000
H       -3.23450000      -0.50500000      -1.29950000
H       -2.38810000       1.04410000      -1.25120000
H       -1.97030000      -2.55140000      -0.74980000
H       -0.42810000      -2.48000000       0.08630000
H       -3.11520000      -1.12970000       2.95710000
H       -2.42790000       0.90760000       1.47630000
