19
Properties=species:S:1:pos:R:3 gdb_97136=T pbc="F F F"
C        0.17120000       1.40950000       0.12220000
N        0.19920000      -0.04200000       0.07510000
C        0.46280000      -0.61820000      -1.00660000
O        0.76010000       0.01340000      -2.20060000
C        0.75820000      -0.93540000      -3.26620000
C        0.75740000      -2.29670000      -2.58300000
C        0.04060000      -3.44000000      -3.25200000
C        1.83670000      -2.50400000      -1.59100000
N        0.49150000      -2.03560000      -1.15260000
H        1.07820000       1.77860000       0.61710000
H        0.09880000       1.88940000      -0.86090000
H       -0.67700000       1.72640000       0.73750000
H       -0.14660000      -0.80620000      -3.87400000
H        1.63410000      -0.75420000      -3.89710000
H        0.53590000      -3.71120000      -4.19100000
H        0.03100000      -4.31980000      -2.60450000
H       -0.99650000      -3.17160000      -3.47860000
H        2.08040000      -3.50810000      -1.25950000
H        2.65430000      -1.78900000      -1.54670000
