13
Properties=species:S:1:pos:R:3 gdb_5487=T pbc="F F F"
N        0.12150000       1.41430000       0.11750000
C       -0.02400000       0.02270000       0.02460000
C       -1.08960000      -0.82640000       0.05320000
N       -0.66980000      -2.15120000       0.00910000
C        0.62660000      -2.11140000      -0.05730000
N        1.10470000      -0.80720000      -0.03840000
C        2.44400000      -0.41620000       0.01110000
O        3.36370000      -1.18770000      -0.05860000
H        0.34090000       1.85340000      -0.77180000
H       -0.71980000       1.84190000       0.48370000
H       -2.13710000      -0.57040000       0.10380000
H        1.30580000      -2.94630000      -0.12120000
H        2.54750000       0.67400000       0.13050000
