19
Properties=species:S:1:pos:R:3 gdb_117866=T pbc="F F F"
C       -0.08060000       1.52280000      -0.04230000
C       -0.02130000       0.01020000       0.08600000
O       -1.34460000      -0.48970000      -0.01070000
C       -1.44220000      -1.90850000       0.01200000
C       -1.41080000      -2.46540000       1.44600000
C       -2.67740000      -2.28710000      -0.67260000
C       -3.69230000      -2.63710000      -1.23000000
C       -4.83870000      -3.02240000      -1.85360000
C       -5.85450000      -3.36710000      -2.40810000
H        0.92500000       1.94910000       0.02210000
H       -0.52150000       1.80830000      -1.00120000
H       -0.69170000       1.95120000       0.75690000
H        0.60310000      -0.42300000      -0.71310000
H        0.43880000      -0.27200000       1.04600000
H       -0.59700000      -2.33860000      -0.55300000
H       -2.23800000      -2.04680000       2.02400000
H       -1.50340000      -3.55480000       1.43430000
H       -0.46820000      -2.20540000       1.93500000
H       -6.74970000      -3.66680000      -2.89360000
