17
Properties=species:S:1:pos:R:3 gdb_34579=T pbc="F F F"
C        0.14820000      -1.14700000      -0.36890000
C        0.04230000       0.03930000      -0.18410000
C       -0.04690000       1.44700000       0.03410000
C       -1.27690000       2.05250000      -0.03220000
C       -1.57190000       3.42390000       0.28620000
C       -0.73160000       4.46760000       0.13940000
C        0.59930000       4.32630000      -0.55290000
C        1.46210000       3.41600000       0.28350000
C        1.17400000       2.11650000       0.46560000
H        0.23240000      -2.19220000      -0.53520000
H       -2.12580000       1.40320000      -0.22840000
H       -2.56680000       3.61240000       0.68430000
H       -1.02190000       5.44600000       0.51190000
H        0.45160000       3.88310000      -1.54730000
H        1.07590000       5.29920000      -0.69080000
H        2.35250000       3.83110000       0.74770000
H        1.88630000       1.48830000       0.99370000
