21
Properties=species:S:1:pos:R:3 gdb_117129=T pbc="F F F"
C       -0.00070000       1.56510000       0.02940000
C        0.00800000       0.03480000       0.02200000
C        0.70280000      -0.53710000      -1.21500000
C        0.71350000      -2.05860000      -1.22680000
O        0.21280000      -2.71630000      -0.33590000
N        1.33450000      -2.66230000      -2.32540000
C        1.94480000      -1.89800000      -3.41060000
C        1.36910000      -4.05570000      -2.37960000
N        1.91550000      -4.67730000      -3.34520000
H        1.01700000       1.97170000       0.01910000
H       -0.52440000       1.96710000      -0.84540000
H       -0.50240000       1.95080000       0.92180000
H        0.50630000      -0.34720000       0.91870000
H       -1.01520000      -0.35180000       0.06610000
H        0.21450000      -0.17640000      -2.13030000
H        1.73660000      -0.17180000      -1.27780000
H        2.76030000      -1.26820000      -3.04360000
H        2.34400000      -2.61730000      -4.12420000
H        1.20820000      -1.26540000      -3.91420000
H        0.88030000      -4.49600000      -1.51120000
H        1.83610000      -5.68180000      -3.20010000
