20
Properties=species:S:1:pos:R:3 gdb_10397=T pbc="F F F"
C       -1.56240000      -0.05160000      -0.24950000
O       -0.16910000       0.19140000      -0.17780000
C        0.64950000      -0.65880000      -0.97400000
C        0.49330000      -0.28900000      -2.44950000
O        0.74840000       1.08580000      -2.65540000
C        2.12050000      -0.63750000      -0.49770000
C        2.16010000      -2.18130000      -0.66810000
C        0.60560000      -2.18940000      -0.70030000
H       -1.99010000       0.20850000      -1.22780000
H       -1.80370000      -1.10140000      -0.03420000
H       -2.03030000       0.57800000       0.51120000
H        1.21060000      -0.85320000      -3.05540000
H       -0.51410000      -0.56970000      -2.80040000
H        0.36350000       1.53760000      -1.89360000
H        2.81270000      -0.02820000      -1.08160000
H        2.16920000      -0.33860000       0.55180000
H        2.59680000      -2.48640000      -1.62210000
H        2.63840000      -2.75520000       0.12740000
H        0.18290000      -2.39540000       0.28670000
H        0.10920000      -2.82380000      -1.44010000
