18
Properties=species:S:1:pos:R:3 gdb_61973=T pbc="F F F"
C       -0.06410000       1.52700000       0.07490000
C        0.07090000       0.02040000      -0.04540000
O        1.14000000      -0.51840000      -0.21680000
C       -1.22480000      -0.77800000       0.05430000
C       -0.99950000      -2.28720000       0.12140000
C       -2.31420000      -3.06610000      -0.05200000
O       -2.96090000      -2.79390000      -1.28420000
C       -2.08600000      -4.51670000       0.11510000
N       -1.89060000      -5.65080000       0.21860000
H        0.89240000       2.00410000      -0.14100000
H       -0.83530000       1.90620000      -0.60420000
H       -0.37880000       1.79110000       1.09140000
H       -1.79770000      -0.41940000       0.91990000
H       -1.84000000      -0.53010000      -0.82100000
H       -0.29140000      -2.58980000      -0.65700000
H       -0.53830000      -2.56680000       1.07420000
H       -3.03050000      -2.75460000       0.71760000
H       -2.40490000      -3.13250000      -1.99610000
