18
Properties=species:S:1:pos:R:3 gdb_22923=T pbc="F F F"
C        0.14020000       1.61920000       0.02830000
C        0.12170000       0.11670000       0.08750000
O       -1.21990000      -0.43000000       0.23660000
C       -0.82850000      -1.23750000       1.37090000
C        0.64330000      -0.82890000       1.23370000
C        1.44130000      -1.66100000       0.18600000
C        0.94220000      -0.71050000      -0.88920000
N        1.14330000      -0.52910000      -2.12520000
O        1.98900000      -1.51820000      -2.65370000
H        1.16700000       1.99580000      -0.00150000
H       -0.37200000       1.95920000      -0.87740000
H       -0.37260000       2.04420000       0.89590000
H       -1.31940000      -0.89220000       2.28960000
H       -1.05470000      -2.30110000       1.22470000
H        1.17580000      -0.47790000       2.11570000
H        2.52810000      -1.62240000       0.30860000
H        1.14870000      -2.70990000       0.07750000
H        2.05630000      -1.25640000      -3.57840000
