19
Properties=species:S:1:pos:R:3 gdb_6847=T pbc="F F F"
C       -0.13450000       1.58960000       0.00290000
C       -0.01400000       0.06180000      -0.03830000
C       -1.38760000      -0.59690000       0.05380000
C        0.77090000      -0.43320000      -1.26180000
C        2.24090000      -0.01210000      -1.17080000
N        2.82680000      -0.25590000       0.14260000
C        2.03900000      -0.41150000       1.11960000
O        0.68690000      -0.35900000       1.16690000
H        0.84730000       2.06940000      -0.00110000
H       -0.69780000       1.95060000      -0.86350000
H       -0.65930000       1.90050000       0.91040000
H       -2.00320000      -0.31570000      -0.80600000
H       -1.29100000      -1.68590000       0.07060000
H       -1.90240000      -0.28300000       0.96630000
H        0.70920000      -1.52720000      -1.29210000
H        0.30570000      -0.05650000      -2.17900000
H        2.83570000      -0.55540000      -1.91350000
H        2.36090000       1.05180000      -1.41570000
H        2.42850000      -0.63310000       2.11250000
