21
Properties=species:S:1:pos:R:3 gdb_93866=T pbc="F F F"
O       -0.40300000       1.60650000       0.53380000
C       -0.18220000       0.26350000       0.12710000
C        0.61990000      -0.55420000       1.18290000
C       -0.40040000      -1.50990000       1.86320000
C       -1.78290000      -1.03200000       1.38510000
O       -2.25010000       0.09270000       2.15300000
C       -1.49130000      -0.51240000      -0.00610000
C       -2.56680000      -0.10850000      -0.96660000
C       -1.77570000      -1.37030000      -1.21380000
H       -1.04270000       1.55950000       1.25760000
H        0.35250000       0.33170000      -0.82500000
H        1.43010000      -1.12030000       0.71500000
H        1.07780000       0.14390000       1.88700000
H       -0.24860000      -2.54160000       1.52960000
H       -0.32560000      -1.51760000       2.95630000
H       -2.53970000      -1.82790000       1.39940000
H       -2.22400000      -0.14950000       3.08450000
H       -3.59860000      -0.20560000      -0.64670000
H       -2.37230000       0.75450000      -1.59380000
H       -1.04600000      -1.37130000      -2.01690000
H       -2.27130000      -2.32440000      -1.06310000
