14
Properties=species:S:1:pos:R:3 gdb_124043=T pbc="F F F"
C       -0.01320000       1.47190000       0.09970000
O        1.31140000       2.05180000       0.02060000
C        2.15180000       1.44270000      -0.82790000
C        3.29910000       1.82910000      -1.47180000
N        3.79000000       0.73670000      -2.13740000
N        3.02670000      -0.29290000      -1.94450000
N        2.00810000       0.12620000      -1.13510000
C        0.98600000      -0.66030000      -0.60720000
C        0.00040000      -0.03410000       0.03430000
H       -0.42010000       1.82950000       1.04790000
H       -0.62670000       1.89510000      -0.71110000
H        3.78860000       2.78710000      -1.49430000
H        1.09740000      -1.72710000      -0.74200000
H       -0.81130000      -0.58390000       0.49260000
