17
Properties=species:S:1:pos:R:3 gdb_54920=T pbc="F F F"
C       -0.07340000       0.55430000       1.21520000
C       -0.09830000       0.45300000      -0.29260000
O        0.63880000       1.07790000      -1.01970000
C       -1.14670000      -0.48620000      -0.88800000
C       -0.72860000      -1.29840000      -2.12360000
C       -0.96310000      -2.53720000      -1.21420000
O       -1.35560000      -1.68260000      -0.10010000
C       -2.00340000      -3.46680000      -1.61610000
C       -2.85830000      -4.23730000      -1.96250000
H        0.69880000       1.25710000       1.52940000
H       -1.05170000       0.88180000       1.58600000
H        0.10270000      -0.43530000       1.64690000
H       -2.08210000       0.08280000      -0.99780000
H       -1.39870000      -1.23270000      -2.97910000
H        0.30060000      -1.13560000      -2.44130000
H       -0.04800000      -3.08810000      -0.96410000
H       -3.61420000      -4.92030000      -2.26350000
