19
Properties=species:S:1:pos:R:3 gdb_101287=T pbc="F F F"
C       -1.51500000       1.92610000      -0.44530000
O       -1.37040000       0.90120000       0.51140000
C       -1.31810000      -0.41140000      -0.02990000
C        0.00660000      -0.73970000      -0.71670000
C       -1.70230000      -1.31600000       1.13140000
O       -1.30020000      -2.67910000       1.10660000
C       -0.80710000      -1.85270000       2.18030000
C        0.60790000      -1.62600000       2.29080000
C        1.78220000      -1.46470000       2.49180000
H       -1.64760000       2.86100000       0.10490000
H       -0.63310000       2.02540000      -1.09380000
H       -2.39710000       1.76280000      -1.08470000
H       -2.12730000      -0.51990000      -0.77480000
H        0.09810000      -0.18440000      -1.65420000
H        0.85030000      -0.48730000      -0.07320000
H        0.05080000      -1.80710000      -0.94570000
H       -2.73510000      -1.16010000       1.45010000
H       -1.28210000      -2.07200000       3.13750000
H        2.82230000      -1.31160000       2.64330000
