19
Properties=species:S:1:pos:R:3 gdb_71090=T pbc="F F F"
C        0.03970000       1.57810000       0.01740000
C       -0.03050000       0.07670000       0.00790000
C        0.38440000      -0.75450000      -1.24110000
C       -0.58220000      -1.82400000      -0.74490000
C       -0.50440000      -1.83730000       0.77970000
C        0.50840000      -0.77570000       1.19380000
C       -1.37180000      -0.80530000       0.06860000
C       -2.73980000      -0.48230000       0.14120000
C       -3.90370000      -0.17420000       0.20340000
H        1.08190000       1.91620000      -0.03260000
H       -0.49320000       2.00660000      -0.83790000
H       -0.40340000       1.99120000       0.92970000
H        0.02670000      -0.29410000      -2.16650000
H        1.44630000      -1.00960000      -1.34080000
H       -0.99850000      -2.65980000      -1.29190000
H       -0.86370000      -2.68300000       1.35140000
H        1.57470000      -1.03150000       1.18070000
H        0.24680000      -0.33170000       2.15850000
H       -4.92970000       0.09150000       0.25840000
