18
Properties=species:S:1:pos:R:3 gdb_99661=T pbc="F F F"
O       -0.07560000       1.40600000       0.19790000
C       -0.13480000      -0.00040000       0.21660000
C       -1.53870000      -0.54490000      -0.14900000
C       -1.89640000      -0.05470000      -1.48570000
N       -2.11260000       0.36130000      -2.54270000
C       -1.60010000      -2.06330000      -0.08660000
C       -1.70430000      -2.75030000       1.26300000
C       -2.87380000      -2.75180000       0.31060000
O       -3.96540000      -1.92140000       0.57300000
H       -0.21390000       1.70000000      -0.71010000
H        0.61430000      -0.45590000      -0.44870000
H        0.09460000      -0.31050000       1.23970000
H       -2.26460000      -0.12610000       0.55490000
H       -1.00270000      -2.56500000      -0.84170000
H       -1.14750000      -3.66610000       1.42650000
H       -1.79810000      -2.11090000       2.13510000
H       -3.11610000      -3.68140000      -0.20270000
H       -4.47570000      -2.31100000       1.29040000
