24
Properties=species:S:1:pos:R:3 gdb_120845=T pbc="F F F"
C        2.95890000       0.26230000      -4.04410000
C        2.42380000      -1.05450000      -3.47620000
C        2.25320000      -1.02470000      -1.95090000
C        1.68210000      -2.32340000      -1.41790000
C        2.56570000      -3.43050000      -0.95900000
N        1.73150000      -2.69980000      -0.00230000
C        2.40060000      -1.82550000       0.96110000
C        2.36730000      -2.49130000       2.33630000
O        2.99000000      -3.76400000       2.32890000
H        2.28400000       1.09540000      -3.81790000
H        3.93890000       0.50820000      -3.62000000
H        3.07080000       0.21100000      -5.13150000
H        1.45830000      -1.29010000      -3.94270000
H        3.09900000      -1.87660000      -3.74510000
H        3.21990000      -0.81050000      -1.48190000
H        1.58550000      -0.19460000      -1.67960000
H        0.73670000      -2.60190000      -1.88520000
H        2.30050000      -4.47050000      -1.13440000
H        3.63740000      -3.23500000      -0.94060000
H        3.44520000      -1.60920000       0.68860000
H        1.86130000      -0.87130000       1.01200000
H        2.91630000      -1.87900000       3.05980000
H        1.32260000      -2.56260000       2.67510000
H        2.47380000      -4.31000000       1.72590000
