13
Properties=species:S:1:pos:R:3 gdb_27718=T pbc="F F F"
N        0.06420000       1.27550000       0.17350000
C       -0.03450000      -0.07210000       0.05290000
N       -1.13710000      -0.77280000      -0.01340000
C       -0.69620000      -2.07700000      -0.06000000
N       -1.58330000      -3.10480000      -0.18850000
C        0.67930000      -2.11050000      -0.01830000
O        1.10530000      -0.76920000       0.05200000
C        1.61160000      -3.14470000      -0.03130000
N        2.34930000      -4.04410000      -0.04120000
H        0.94380000       1.69120000      -0.08790000
H       -0.76310000       1.79150000      -0.07900000
H       -2.52340000      -2.89400000       0.10820000
H       -1.25530000      -4.02570000       0.05710000
