17
Properties=species:S:1:pos:R:3 gdb_97047=T pbc="F F F"
C       -0.03810000       1.38780000       0.20650000
N       -0.10170000      -0.05060000       0.01390000
C        0.60560000      -0.54970000      -0.92230000
C        0.51560000      -2.03220000      -1.19850000
O        1.78330000      -2.62380000      -1.53850000
C        2.55230000      -2.00700000      -2.46010000
O        3.52470000      -2.54200000      -2.91170000
C        2.09770000      -0.60780000      -2.87090000
N        1.47510000       0.09420000      -1.76520000
H        0.96840000       1.72350000       0.50350000
H       -0.32050000       1.95290000      -0.69790000
H       -0.72850000       1.67910000       1.00150000
H        0.16390000      -2.54220000      -0.30440000
H       -0.19440000      -2.22440000      -2.01440000
H        2.98490000      -0.06970000      -3.20640000
H        1.42930000      -0.71130000      -3.74220000
H        1.52360000       1.09880000      -1.74670000
