20
Properties=species:S:1:pos:R:3 gdb_55798=T pbc="F F F"
C       -0.00900000       1.52240000      -0.03830000
C        0.08480000       0.00670000      -0.13990000
O        1.10890000      -0.55080000      -0.49020000
N       -1.06320000      -0.66700000       0.18490000
C       -1.16020000      -2.10040000       0.13500000
C       -1.84290000      -2.89280000       1.29620000
C       -3.22030000      -2.39240000       0.76250000
C       -2.40630000      -2.79220000      -0.50630000
C       -1.97410000      -4.06340000       0.27970000
H        0.79900000       1.88030000       0.60470000
H        0.15130000       1.95150000      -1.03140000
H       -0.96390000       1.88370000       0.35300000
H       -1.86580000      -0.12920000       0.46400000
H       -0.18810000      -2.47050000      -0.18950000
H       -1.51550000      -2.95180000       2.33510000
H       -4.08510000      -3.01850000       0.99790000
H       -3.47660000      -1.33820000       0.90160000
H       -2.72890000      -2.73510000      -1.54680000
H       -1.04810000      -4.55030000      -0.03690000
H       -2.76350000      -4.78910000       0.48600000
