21
Properties=species:S:1:pos:R:3 gdb_82899=T pbc="F F F"
C       -0.22300000       1.56620000       0.03710000
C        0.05080000       0.06210000      -0.01290000
C        0.99040000      -0.50290000      -1.11470000
C        2.27730000       0.27930000      -0.77620000
C        2.44220000      -0.40620000       0.60430000
C        2.74320000      -1.82920000       0.07680000
C        1.31820000      -1.96360000      -0.49090000
O        0.61940000      -1.96740000       0.76730000
C        0.90800000      -0.59730000       1.09280000
H        0.64500000       2.16590000       0.32070000
H       -0.58170000       1.93500000      -0.93040000
H       -1.00550000       1.77140000       0.77530000
H       -0.91020000      -0.45780000      -0.01640000
H        0.63000000      -0.49000000      -2.14300000
H        3.12280000       0.07060000      -1.43560000
H        2.12930000       1.35820000      -0.76280000
H        3.12810000       0.03350000       1.32650000
H        3.56470000      -1.83790000      -0.64300000
H        2.90900000      -2.59440000       0.83620000
H        1.04920000      -2.83710000      -1.08260000
H        0.68550000      -0.39340000       2.13970000
