16
Properties=species:S:1:pos:R:3 gdb_70040=T pbc="F F F"
C        0.05090000       1.50680000      -0.05140000
C       -0.07450000       0.01840000       0.11730000
C       -1.39990000      -0.68930000      -0.17340000
C       -1.32870000      -1.93430000       0.70080000
C       -0.21010000      -1.96620000       1.44500000
C        0.64730000      -0.79350000       1.12270000
O        1.05770000      -0.76940000      -0.26500000
C       -2.34260000      -2.92880000       0.68610000
N       -3.19230000      -3.71600000       0.65880000
H        1.04830000       1.84130000       0.24350000
H       -0.10670000       1.79050000      -1.09770000
H       -0.69260000       2.03260000       0.55600000
H       -2.26250000      -0.06750000       0.09300000
H       -1.49530000      -0.94230000      -1.23470000
H        0.05140000      -2.74250000       2.15190000
H        1.36800000      -0.39230000       1.82820000
