23
Properties=species:S:1:pos:R:3 gdb_115925=T pbc="F F F"
C        0.00380000       1.34810000       0.15940000
O       -0.08820000      -0.04010000      -0.05160000
C        0.63210000      -0.52160000      -1.17780000
C        2.13570000      -0.65710000      -0.90910000
C        2.87370000      -1.07420000      -2.19100000
C        2.25710000      -2.28660000      -2.86810000
C        1.96510000      -3.55040000      -2.10310000
C        0.82260000      -2.67180000      -2.56240000
C        0.01130000      -1.87430000      -1.54120000
H        1.02460000       1.67740000       0.40440000
H       -0.33650000       1.91720000      -0.72050000
H       -0.64610000       1.58920000       1.00470000
H        0.49370000       0.17870000      -2.02090000
H        2.54800000       0.29040000      -0.54750000
H        2.28600000      -1.39050000      -0.10730000
H        2.84680000      -0.23210000      -2.89590000
H        3.93340000      -1.25730000      -1.97380000
H        2.57890000      -2.42780000      -3.89640000
H        2.12270000      -4.50090000      -2.60150000
H        2.17970000      -3.57110000      -1.03870000
H        0.24520000      -3.05460000      -3.39790000
H       -0.10320000      -2.43990000      -0.60860000
H       -1.00090000      -1.70210000      -1.91910000
