18
Properties=species:S:1:pos:R:3 gdb_41564=T pbc="F F F"
C        0.30730000       1.61050000      -0.30120000
C        1.57590000       1.51690000       0.60330000
C        1.34230000      -0.00520000       0.78000000
C        0.02550000       0.09840000      -0.08320000
C        0.63340000      -0.88430000      -1.11790000
O        1.02150000      -0.34060000      -2.40010000
C        2.35380000      -0.08790000      -2.28110000
N        2.97140000      -0.36850000      -1.20820000
C        1.96030000      -0.94230000      -0.31020000
H       -0.47770000       2.25460000       0.10070000
H        0.48090000       1.89620000      -1.34060000
H        2.52370000       1.79360000       0.13920000
H        1.47360000       2.06770000       1.54120000
H        1.35680000      -0.40370000       1.79490000
H       -0.96150000      -0.17150000       0.29440000
H        0.06510000      -1.79820000      -1.29780000
H        2.80090000       0.35130000      -3.16650000
H        2.29580000      -1.91110000       0.06730000
