21
Properties=species:S:1:pos:R:3 gdb_39631=T pbc="F F F"
C       -0.03820000       1.43930000      -0.19780000
O        1.29260000       1.60770000       0.32890000
C        1.42950000       0.19390000       0.57210000
C        0.00620000      -0.09120000       0.03300000
C       -0.99040000      -0.67080000       0.99550000
C       -1.33240000      -0.17920000       2.44140000
C       -2.24580000      -1.41090000       2.19200000
C       -2.53010000      -0.83160000       0.77820000
C       -1.00820000      -2.12180000       1.57700000
H       -0.78650000       1.98040000       0.39550000
H       -0.11070000       1.76350000      -1.24330000
H        2.25520000      -0.24400000      -0.00220000
H        1.57960000      -0.02730000       1.63660000
H        0.00200000      -0.67010000      -0.89530000
H       -0.55110000      -0.29350000       3.19830000
H       -1.83030000       0.79100000       2.52700000
H       -2.97120000      -1.83790000       2.88450000
H       -3.11810000       0.09000000       0.73310000
H       -2.84230000      -1.54260000       0.00740000
H       -1.20610000      -2.92970000       0.86610000
H       -0.19920000      -2.38460000       2.26510000
