17
Properties=species:S:1:pos:R:3 gdb_49217=T pbc="F F F"
O       -0.09520000      -0.00790000       0.05090000
C       -0.01760000       1.20100000       0.06410000
C        1.24400000       1.94470000       0.04980000
C        1.33430000       3.28270000       0.03020000
C        2.75970000       3.75520000      -0.02630000
C        3.56720000       2.46890000       0.34340000
C        2.60390000       1.28720000       0.00720000
C        4.87530000       2.38240000      -0.28630000
C        5.95030000       2.31270000      -0.82010000
H       -0.93030000       1.83770000       0.09240000
H        0.48440000       3.95790000       0.01760000
H        3.00920000       4.10280000      -1.03800000
H        2.97180000       4.58910000       0.65020000
H        3.70400000       2.47730000       1.43170000
H        2.69870000       0.45610000       0.70990000
H        2.80560000       0.88110000      -0.99070000
H        6.90230000       2.24750000      -1.28590000
