15
Properties=species:S:1:pos:R:3 gdb_19037=T pbc="F F F"
O        0.00360000      -0.00660000      -0.10220000
C       -0.02140000       1.19240000       0.01230000
C       -1.26690000       2.10290000       0.06350000
N       -0.77350000       3.42740000       0.47290000
C       -0.15190000       3.31790000       1.85000000
C        1.21650000       3.16960000       1.21160000
C        0.60900000       3.53290000      -0.10430000
C        1.14640000       2.13340000       0.06770000
H       -1.70600000       2.16380000      -0.94010000
H       -2.03140000       1.72170000       0.74490000
H       -0.26950000       4.26380000       2.38620000
H       -0.53550000       2.49910000       2.46890000
H        2.17880000       3.44810000       1.62360000
H        0.87200000       4.24010000      -0.87990000
H        2.09510000       1.82820000      -0.35490000
