22
Properties=species:S:1:pos:R:3 gdb_88184=T pbc="F F F"
C       -0.07960000       1.53030000      -0.13070000
C       -0.00540000       0.03280000       0.05350000
N        1.30030000      -0.61340000      -0.14140000
C        0.66530000      -0.64090000       1.20790000
C        1.37970000       0.14770000       2.29420000
C        2.19920000      -0.78930000       3.19280000
C        1.30310000      -1.84730000       3.85140000
C        0.36330000      -2.47480000       2.85560000
C        0.09710000      -1.93360000       1.66470000
H        0.81620000       2.02590000       0.24830000
H       -0.17210000       1.77790000      -1.19390000
H       -0.95200000       1.94310000       0.38760000
H       -0.87310000      -0.49850000      -0.34000000
H        1.18790000      -1.51730000      -0.59560000
H        2.02840000       0.89760000       1.83630000
H        0.63570000       0.67940000       2.90320000
H        2.95750000      -1.29090000       2.57900000
H        2.73420000      -0.21480000       3.95600000
H        1.91590000      -2.62530000       4.32340000
H        0.72290000      -1.39600000       4.67110000
H       -0.10920000      -3.41330000       3.13520000
H       -0.57040000      -2.44190000       0.97040000
