23
Properties=species:S:1:pos:R:3 gdb_103647=T pbc="F F F"
C        0.04720000       1.61170000       0.00040000
C        0.04350000       0.07870000       0.03030000
C        0.77150000      -0.57390000      -1.17660000
C        1.50970000      -1.83070000      -0.62970000
C        0.71480000      -3.12640000      -0.89210000
C        2.91060000      -1.94920000      -1.24250000
O        3.56540000      -3.07340000      -0.67000000
C        1.56840000      -1.53300000       0.85880000
C        0.77570000      -0.52410000       1.21010000
H        1.07220000       1.99890000      -0.00540000
H       -0.46170000       1.99020000      -0.89280000
H       -0.46350000       2.02780000       0.87550000
H       -1.00720000      -0.24900000       0.05580000
H        0.09110000      -0.81830000      -1.99750000
H        1.50590000       0.14000000      -1.57140000
H        0.63940000      -3.32320000      -1.96820000
H        1.20590000      -3.98470000      -0.42750000
H       -0.29900000      -3.04740000      -0.48790000
H        2.82370000      -2.05670000      -2.33700000
H        3.47120000      -1.02290000      -1.04160000
H        4.44690000      -3.13500000      -1.04820000
H        2.17350000      -2.13300000       1.52880000
H        0.62840000      -0.16570000       2.22440000
