12
Properties=species:S:1:pos:R:3 gdb_45922=T pbc="F F F"
N       -0.23140000       1.36270000       0.06950000
C       -0.05870000       0.12120000       0.13380000
C       -1.12490000      -0.86970000      -0.22960000
O       -1.21370000      -1.93720000       0.72620000
C       -0.07150000      -2.49010000       1.17370000
O       -0.06510000      -3.46190000       1.86390000
C        1.25030000      -1.77820000       0.79780000
O        2.30920000      -2.31150000       0.85960000
O        1.15950000      -0.44530000       0.46940000
H        0.62390000       1.87170000       0.30090000
H       -2.09380000      -0.37580000      -0.24070000
H       -0.92380000      -1.28850000      -1.22400000
