21
Properties=species:S:1:pos:R:3 gdb_69544=T pbc="F F F"
C       -0.01160000       1.54690000       0.01390000
C        0.03170000       0.04530000       0.00330000
C       -0.86250000      -0.82650000       0.83340000
C        0.62710000      -0.95900000       1.01240000
C        1.31460000      -1.75180000      -0.13010000
C        2.81040000      -1.92400000      -0.00350000
C        0.47950000      -2.84960000      -0.83080000
O       -0.16330000      -1.86900000      -1.68740000
C        0.64730000      -0.79890000      -1.14210000
H        0.94610000       1.98240000      -0.29430000
H       -0.78260000       1.92620000      -0.66810000
H       -0.24140000       1.92630000       1.01520000
H       -1.36570000      -0.31140000       1.64630000
H       -1.45570000      -1.60470000       0.36580000
H        1.10000000      -0.76050000       1.96860000
H        3.05890000      -2.64570000       0.78410000
H        3.25090000      -2.28370000      -0.93940000
H        3.29470000      -0.97620000       0.25660000
H        1.07710000      -3.55610000      -1.42160000
H       -0.24000000      -3.40770000      -0.22050000
H        1.19480000      -0.24450000      -1.91070000
