17
Properties=species:S:1:pos:R:3 gdb_63509=T pbc="F F F"
C        0.07570000       1.44450000       0.04540000
C        0.06560000      -0.06710000       0.10330000
C       -1.11470000      -0.73080000      -0.57110000
O        1.31440000      -0.70120000      -0.07080000
C        0.79240000      -0.78900000       1.24790000
C        1.47830000       0.01240000       2.31580000
O        2.29470000       0.87530000       2.12040000
C        0.30490000      -2.13190000       1.70850000
O        0.12630000      -3.08730000       0.99810000
H        0.96890000       1.86000000       0.50870000
H        0.05580000       1.75080000      -1.00620000
H       -0.81730000       1.85510000       0.52690000
H       -1.13090000      -0.42260000      -1.62210000
H       -1.04410000      -1.81640000      -0.53130000
H       -2.05410000      -0.40300000      -0.11520000
H        1.16270000      -0.25800000       3.34810000
H        0.10900000      -2.18390000       2.80270000
