16
Properties=species:S:1:pos:R:3 gdb_13783=T pbc="F F F"
C       -0.20540000       1.17460000       0.93890000
C       -0.06660000       0.26020000      -0.27850000
O        1.01720000      -0.64900000      -0.14320000
C       -1.37940000      -0.44990000      -0.57650000
O       -1.42890000      -1.35330000      -1.67120000
C       -1.61060000      -1.89720000      -0.36320000
C       -0.54280000      -2.84270000       0.11380000
O       -0.57370000      -3.35490000       1.20610000
H        0.73940000       1.69100000       1.12730000
H       -0.98360000       1.92810000       0.78500000
H       -0.47210000       0.59600000       1.83180000
H        0.17400000       0.86700000      -1.16160000
H        1.10380000      -0.88070000       0.78840000
H       -2.25640000       0.19880000      -0.50480000
H       -2.62440000      -2.21330000      -0.11280000
H        0.24370000      -3.05700000      -0.63390000
