19
Properties=species:S:1:pos:R:3 gdb_34609=T pbc="F F F"
C        0.00460000      -1.03720000       0.48030000
C       -0.06470000       0.14600000       0.26010000
C       -0.08000000       1.53820000      -0.00200000
C       -1.16760000       2.32460000      -0.07160000
C       -0.83900000       3.76270000      -0.38530000
C        0.69720000       3.79880000      -0.28180000
C        1.30480000       3.99900000       1.14040000
C        2.04290000       2.63510000       1.01970000
C        1.19900000       2.31760000      -0.24800000
H        0.04740000      -2.08010000       0.67400000
H       -2.18240000       1.96850000       0.06680000
H       -1.20240000       4.03760000      -1.38590000
H       -1.31720000       4.46170000       0.31390000
H        1.16500000       4.43050000      -1.03860000
H        1.93730000       4.87970000       1.27410000
H        0.54040000       4.00600000       1.92250000
H        3.10500000       2.74990000       0.78750000
H        1.94480000       1.93860000       1.85590000
H        1.75270000       1.92110000      -1.10440000
