19
Properties=species:S:1:pos:R:3 gdb_37285=T pbc="F F F"
C       -0.04290000       1.49340000      -0.01950000
C        1.49990000       1.73800000      -0.01100000
N        2.07570000       0.37290000       0.04030000
C        1.20320000      -0.39340000      -0.94280000
C        1.49400000      -1.86210000      -0.63140000
N        2.74720000      -2.08980000       0.12890000
C        1.47810000      -1.81340000       0.84530000
C        1.18170000      -0.32750000       1.05290000
C        0.02200000      -0.02970000       0.03150000
H       -0.55410000       1.92550000       0.84600000
H       -0.53510000       1.86710000      -0.92240000
H        1.85910000       2.24660000      -0.90980000
H        1.84010000       2.30500000       0.85980000
H        1.22220000      -0.05400000      -1.98050000
H        1.05260000      -2.65440000      -1.22400000
H        2.89900000      -3.09800000       0.16380000
H        1.02350000      -2.56510000       1.47930000
H        1.17860000       0.07970000       2.06600000
H       -0.91610000      -0.59230000       0.04000000
