21
Properties=species:S:1:pos:R:3 gdb_68830=T pbc="F F F"
C        0.02720000       1.55250000       0.06870000
C       -0.03980000       0.05390000       0.07640000
C        1.12550000      -0.83410000      -0.33140000
C        0.54480000      -0.96310000       1.05120000
O        1.27800000      -0.68840000       2.19380000
C       -0.74710000      -1.79150000       1.03530000
C       -1.30750000      -0.78870000       0.00120000
C       -2.71440000      -0.27970000      -0.05420000
C       -2.14610000      -1.08120000      -1.20880000
H        1.00990000       1.89680000       0.40550000
H       -0.14160000       1.96150000      -0.93500000
H       -0.72470000       1.98550000       0.73740000
H        0.99940000      -1.61510000      -1.07850000
H        2.08430000      -0.32410000      -0.36040000
H        1.98160000      -1.34240000       2.26800000
H       -0.66280000      -2.84100000       0.72960000
H       -1.27230000      -1.73330000       1.99280000
H       -3.45580000      -0.75210000       0.58290000
H       -2.87320000       0.78350000      -0.20530000
H       -1.92220000      -0.55480000      -2.13160000
H       -2.50750000      -2.09470000      -1.35140000
