22
Properties=species:S:1:pos:R:3 gdb_59275=T pbc="F F F"
C        0.05440000       1.56000000       0.02100000
C        0.03810000       0.02570000       0.05570000
C        0.75840000      -0.48620000       1.31150000
C       -1.40090000      -0.53970000      -0.02490000
C       -2.17300000      -0.15380000      -1.27940000
C       -2.65970000      -1.20860000      -1.93650000
C       -2.26420000      -2.47610000      -1.25680000
N       -0.78310000      -2.67280000      -1.23580000
C       -1.46970000      -2.07180000      -0.06870000
H        1.07900000       1.93770000       0.10420000
H       -0.36630000       1.95690000      -0.90730000
H       -0.51970000       1.98080000       0.85610000
H        0.57360000      -0.35170000      -0.82300000
H        0.83160000      -1.57760000       1.31950000
H        1.77610000      -0.08590000       1.36720000
H        0.23200000      -0.17640000       2.22320000
H       -1.94500000      -0.18380000       0.86510000
H       -2.28090000       0.87640000      -1.59780000
H       -3.23580000      -1.17540000      -2.85350000
H       -2.90270000      -3.35310000      -1.26980000
H       -0.59130000      -3.64990000      -1.01880000
H       -1.50300000      -2.63530000       0.85720000
