20
Properties=species:S:1:pos:R:3 gdb_72196=T pbc="F F F"
C       -0.01150000       1.47850000       0.04820000
C       -0.05610000      -0.02660000       0.11210000
C       -1.35370000      -0.74550000      -0.22210000
C       -0.99990000      -2.22720000      -0.06720000
C       -0.09930000      -2.65140000      -1.26250000
C        1.09740000      -2.16640000      -0.43740000
C        0.28580000      -2.24270000       0.87420000
C        0.68730000      -0.78370000       1.13620000
N        1.25300000      -0.65950000      -0.27010000
H        0.96590000       1.85020000       0.36500000
H       -0.18740000       1.82850000      -0.97470000
H       -0.78060000       1.91750000       0.69380000
H       -2.12420000      -0.42360000       0.49030000
H       -1.72420000      -0.51990000      -1.22890000
H       -1.84400000      -2.86850000       0.18760000
H       -0.05720000      -3.73780000      -1.38960000
H       -0.29370000      -2.18190000      -2.23200000
H        2.08580000      -2.60940000      -0.57000000
H        0.39300000      -3.02340000       1.62360000
H        1.19110000      -0.36840000       2.00320000
