20
Properties=species:S:1:pos:R:3 gdb_93538=T pbc="F F F"
C        0.25090000       1.62090000      -0.00600000
C       -0.04920000       0.11070000      -0.03350000
C        0.47880000      -0.52480000      -1.32550000
C        0.21620000      -2.03720000      -1.43190000
C        1.27570000      -2.90590000      -0.78330000
O        1.81640000      -3.83040000      -1.35920000
N        1.62050000      -2.61910000       0.52370000
C        1.15400000      -1.65790000       1.42570000
C        0.45070000      -0.53780000       1.23070000
H        1.33080000       1.80380000      -0.00050000
H       -0.17490000       2.12060000      -0.88230000
H       -0.17170000       2.09130000       0.88750000
H       -1.14680000       0.00480000      -0.04660000
H       -0.00340000      -0.02520000      -2.17260000
H        1.55330000      -0.32630000      -1.42670000
H       -0.75610000      -2.27620000      -0.98070000
H        0.17840000      -2.35980000      -2.47380000
H        2.29480000      -3.27960000       0.88300000
H        1.43170000      -1.91310000       2.44410000
H        0.20210000       0.00030000       2.14230000
