18
Properties=species:S:1:pos:R:3 gdb_53019=T pbc="F F F"
C       -0.02810000       1.47750000      -0.00440000
C       -0.00230000       0.02330000      -0.01560000
C        0.02010000      -1.18180000      -0.03130000
C        0.04550000      -2.61200000      -0.04280000
C        1.19830000      -3.41590000       0.61280000
C        0.90380000      -4.44000000      -0.46270000
C       -0.56790000      -4.46410000      -0.71200000
C       -1.23260000      -3.45580000       0.20100000
N        0.28700000      -3.42780000      -1.38960000
H        0.75400000       1.88600000       0.64500000
H        0.13380000       1.87900000      -1.01090000
H       -0.99160000       1.85740000       0.35290000
H        2.15840000      -2.92520000       0.44020000
H        1.09620000      -3.68530000       1.66920000
H        1.56500000      -5.20830000      -0.84610000
H       -1.04110000      -5.25110000      -1.28750000
H       -1.47560000      -3.72750000       1.23350000
H       -2.09750000      -2.99500000      -0.28080000
