19
Properties=species:S:1:pos:R:3 gdb_5107=T pbc="F F F"
C        0.09340000       1.41550000       0.00860000
N       -0.00400000      -0.02830000       0.00190000
C       -0.01280000      -0.82070000      -1.13320000
C       -0.00900000      -0.24930000      -2.51300000
C       -0.02720000      -2.13290000      -0.71980000
C       -0.01950000      -2.14050000       0.70120000
C       -0.00010000      -0.83280000       1.12850000
C        0.01930000      -0.27670000       2.51440000
H        1.13590000       1.75950000      -0.00180000
H       -0.41170000       1.82940000      -0.86660000
H       -0.39060000       1.81930000       0.90020000
H        0.87430000       0.37060000      -2.71430000
H       -0.00940000      -1.06460000      -3.24020000
H       -0.89150000       0.37130000      -2.71840000
H       -0.04880000      -2.99090000      -1.37520000
H       -0.03400000      -3.00540000       1.34760000
H        0.90520000       0.34040000       2.71300000
H       -0.86040000       0.34210000       2.73650000
H        0.02630000      -1.10010000       3.23240000
