19
Properties=species:S:1:pos:R:3 gdb_38878=T pbc="F F F"
C       -0.03230000       1.54460000       0.00860000
C        1.50270000       1.77590000      -0.03350000
C        1.84480000       1.74140000      -1.52870000
O        1.15330000       0.62810000      -2.11310000
C        1.00550000      -0.42480000      -1.15680000
C        2.34330000      -0.58960000      -0.40630000
C        2.03110000       0.45290000       0.68140000
O        0.84530000      -0.15540000       1.21670000
C        0.04070000       0.01460000       0.03700000
H       -0.50210000       1.90150000       0.92660000
H       -0.54110000       1.97000000      -0.85770000
H        1.84920000       2.69100000       0.44790000
H        1.48050000       2.63910000      -2.03880000
H        2.92650000       1.67020000      -1.71110000
H        0.65370000      -1.29570000      -1.70900000
H        2.45910000      -1.56850000       0.06190000
H        3.19680000      -0.39830000      -1.05880000
H        2.76780000       0.60070000       1.47030000
H       -0.88990000      -0.54330000       0.13400000
