23
Properties=species:S:1:pos:R:3 gdb_39678=T pbc="F F F"
C       -0.05940000       1.54620000      -0.07900000
C        1.49170000       1.49300000      -0.09800000
C        1.41340000       0.09890000       0.58920000
C       -0.07530000       0.01010000       0.14530000
C        2.38240000      -0.98660000       0.15090000
C        2.10700000      -2.38220000       0.72940000
C        2.70580000      -3.29990000      -0.34430000
C        2.38030000      -2.52800000      -1.63030000
O        2.32700000      -1.14690000      -1.27390000
H       -0.43720000       2.08750000       0.79360000
H       -0.56290000       1.93100000      -0.96890000
H        1.88000000       1.39800000      -1.11490000
H        2.03780000       2.28550000       0.42020000
H        1.48700000       0.20570000       1.67810000
H       -0.80060000      -0.39480000       0.85550000
H       -0.15820000      -0.53100000      -0.80090000
H        3.40540000      -0.67320000       0.42310000
H        2.54920000      -2.51930000       1.71920000
H        1.02620000      -2.54430000       0.81440000
H        3.78990000      -3.38350000      -0.21200000
H        2.28850000      -4.30990000      -0.34220000
H        3.13410000      -2.66670000      -2.41400000
H        1.40740000      -2.83530000      -2.04130000
