15
Properties=species:S:1:pos:R:3 gdb_131160=T pbc="F F F"
O       -0.20170000       1.44640000       0.11570000
C       -0.04610000       0.09350000       0.07440000
C        0.05390000      -0.63610000      -1.09620000
C        0.04540000      -0.20740000      -2.52760000
C        1.42790000      -0.37140000      -3.14680000
O        1.67590000      -1.10770000      -4.06530000
N        0.21040000      -1.93120000      -0.68830000
N        0.20300000      -2.08400000       0.64150000
C        0.04910000      -0.84910000       1.12020000
H       -0.32500000       1.71940000       1.02950000
H       -0.67270000      -0.77240000      -3.13080000
H       -0.22890000       0.85340000      -2.55820000
H        2.22050000       0.23280000      -2.65220000
H        0.31340000      -2.74320000      -1.27420000
H        0.00870000      -0.68110000       2.18690000
