16
Properties=species:S:1:pos:R:3 gdb_124400=T pbc="F F F"
C       -0.00150000       1.52960000      -0.07770000
C       -0.02010000      -0.01190000       0.07220000
C        0.72010000      -0.43350000       1.26160000
C        1.33180000      -0.75120000       2.24600000
C       -1.43270000      -0.54170000       0.08640000
N       -2.15610000      -0.60630000      -1.03510000
N       -3.32320000      -1.07750000      -0.61700000
N       -3.43270000      -1.33450000       0.67770000
C       -2.23190000      -0.99710000       1.15040000
H        1.02740000       1.89360000      -0.13480000
H       -0.53380000       1.81590000      -0.98790000
H       -0.48990000       2.00270000       0.77830000
H        0.47590000      -0.43580000      -0.81030000
H        1.87860000      -1.04370000       3.10810000
H       -4.08290000      -1.24750000      -1.25610000
H       -1.99040000      -1.09790000       2.19540000
