16
Properties=species:S:1:pos:R:3 gdb_55223=T pbc="F F F"
C        0.42740000       0.30210000       0.93320000
C       -0.15010000       0.24680000      -0.45980000
O        0.35160000       0.79010000      -1.41530000
C       -1.48210000      -0.51100000      -0.64140000
C       -1.53500000      -1.31850000      -1.95350000
N       -1.22250000      -2.63650000      -1.43480000
C       -1.48930000      -2.74070000      -0.09050000
O       -1.53270000      -3.72260000       0.59330000
O       -1.69480000      -1.46880000       0.40010000
H        1.28790000       0.97140000       0.94470000
H       -0.32920000       0.63450000       1.65160000
H        0.72730000      -0.70140000       1.25230000
H       -2.28250000       0.23460000      -0.58490000
H       -2.52710000      -1.27500000      -2.42070000
H       -0.78920000      -0.94680000      -2.65900000
H       -1.29410000      -3.47160000      -1.99190000
