21
Properties=species:S:1:pos:R:3 gdb_113093=T pbc="F F F"
C        0.13620000       1.31910000       0.13820000
O       -0.00240000      -0.04950000      -0.15880000
C       -1.32760000      -0.54400000      -0.00850000
C       -1.41760000      -1.93360000      -0.67530000
C       -2.27570000      -2.81480000       0.26550000
C       -1.75870000      -4.24550000       0.39680000
O       -2.65650000      -4.95890000       1.23520000
C       -2.25680000      -2.03970000       1.56320000
C       -1.74380000      -0.82010000       1.42160000
H        1.17300000       1.59320000      -0.07350000
H       -0.52820000       1.94070000      -0.48360000
H       -0.07430000       1.54700000       1.19410000
H       -2.01980000       0.17710000      -0.47880000
H       -1.80670000      -1.88880000      -1.69480000
H       -0.39470000      -2.32280000      -0.72800000
H       -3.30850000      -2.88740000      -0.10400000
H       -1.69330000      -4.70690000      -0.60210000
H       -0.74190000      -4.22710000       0.82110000
H       -2.30540000      -5.84340000       1.37140000
H       -2.64830000      -2.46400000       2.48050000
H       -1.65410000      -0.08000000       2.20890000
