18
Properties=species:S:1:pos:R:3 gdb_78706=T pbc="F F F"
C        0.02110000       1.45890000       0.03970000
C        0.03970000      -0.04830000      -0.02550000
C       -0.04770000      -0.74240000      -1.34560000
C       -0.57370000      -1.95230000      -1.16230000
C       -0.73810000      -2.16030000       0.31550000
C        0.68970000      -2.29040000       0.99070000
O        1.78600000      -2.84470000       0.31310000
C        0.66320000      -0.79110000       1.13210000
N       -0.84310000      -0.76140000       0.92850000
H        0.92800000       1.87840000      -0.40880000
H       -0.84440000       1.85540000      -0.50070000
H       -0.04090000       1.80280000       1.07560000
H        0.29170000      -0.30040000      -2.27330000
H       -0.71370000      -2.72540000      -1.90630000
H       -1.51010000      -2.85430000       0.64660000
H        0.56040000      -2.73630000       1.98480000
H        1.78990000      -3.79580000       0.45950000
H        1.14520000      -0.24310000       1.93710000
