15
Properties=species:S:1:pos:R:3 gdb_29200=T pbc="F F F"
C       -0.03330000       1.53670000       0.01940000
C       -0.00860000       0.03710000      -0.00410000
C       -0.03580000      -0.70320000      -1.12810000
O       -0.01340000      -2.04190000      -1.14530000
C        0.04270000      -2.77300000       0.07670000
N        0.06270000      -4.03610000       0.03200000
N        0.07140000      -2.05100000       1.24300000
C        0.04780000      -0.76100000       1.20090000
O        0.07680000      -0.07910000       2.35240000
H        0.85910000       1.94240000       0.50730000
H       -0.07980000       1.93820000      -0.99660000
H       -0.89830000       1.91220000       0.57580000
H       -0.07870000      -0.28460000      -2.12850000
H        0.03390000      -4.35600000      -0.93460000
H        0.11320000      -0.74250000       3.05910000
