20
Properties=species:S:1:pos:R:3 gdb_119021=T pbc="F F F"
C       -0.42680000       1.10750000       2.88940000
C       -0.30430000      -0.39020000       2.66880000
O        0.58940000      -0.59960000       1.57960000
C        0.94210000      -1.92400000       1.33420000
C       -0.16980000      -2.79410000       0.75160000
C       -0.69450000      -2.26850000      -0.51010000
N       -1.11190000      -1.85930000      -1.50640000
C        2.34450000      -2.11400000       0.84900000
C        1.95980000      -2.56920000       2.24410000
H       -0.80130000       1.59640000       1.98600000
H       -1.11950000       1.31470000       3.71030000
H        0.54650000       1.54100000       3.13590000
H        0.07930000      -0.89150000       3.57000000
H       -1.29200000      -0.82100000       2.44630000
H        0.20820000      -3.80700000       0.57970000
H       -1.00020000      -2.88860000       1.46080000
H        2.53400000      -2.86370000       0.08870000
H        2.94470000      -1.21620000       0.76550000
H        2.31630000      -1.97140000       3.07490000
H        1.89100000      -3.63270000       2.44710000
