19
Properties=species:S:1:pos:R:3 gdb_99598=T pbc="F F F"
C        0.09280000       1.46150000      -0.78450000
C       -0.01130000       0.10000000      -0.13740000
C        1.19780000      -0.71360000       0.05400000
O        0.62610000       0.00370000       1.15720000
C       -1.37710000      -0.60880000      -0.18180000
C       -2.34510000      -0.03270000       0.89080000
O       -1.97010000      -0.41400000       2.19210000
C       -1.96770000      -0.56300000      -1.51460000
C       -2.48190000      -0.51270000      -2.60020000
H        1.08230000       1.88660000      -0.60190000
H       -0.07350000       1.38710000      -1.86200000
H       -0.65430000       2.14940000      -0.37640000
H        1.11860000      -1.79790000       0.11050000
H        2.16130000      -0.33480000      -0.28230000
H       -1.22150000      -1.65770000       0.10060000
H       -2.40710000       1.06130000       0.77640000
H       -3.34660000      -0.43450000       0.71250000
H       -1.02320000      -0.24190000       2.27890000
H       -2.93370000      -0.48040000      -3.56080000
