21
Properties=species:S:1:pos:R:3 gdb_89632=T pbc="F F F"
C       -0.22380000       1.57620000       0.09620000
C        0.05350000       0.08380000       0.11090000
C        0.97830000      -0.55940000      -0.96310000
C        1.80600000      -1.09490000       0.21150000
C        2.27090000       0.03810000       1.03710000
N        0.89250000      -0.44890000       1.25220000
C        2.33700000      -2.47440000       0.36640000
C        1.79210000      -3.62490000      -0.39560000
N        3.12830000      -3.09090000      -0.71860000
H        0.68930000       2.17320000       0.01190000
H       -0.86530000       1.83270000      -0.75390000
H       -0.74110000       1.87480000       1.01380000
H       -0.89740000      -0.45440000       0.15850000
H        0.47300000      -1.32230000      -1.55750000
H        1.50590000       0.11900000      -1.64090000
H        2.92150000      -0.18640000       1.87720000
H        2.44500000       1.01170000       0.58540000
H        2.74030000      -2.67230000       1.35750000
H        1.79380000      -4.61350000       0.05470000
H        0.97610000      -3.45030000      -1.09080000
H        3.06700000      -2.50870000      -1.55200000
