19
Properties=species:S:1:pos:R:3 gdb_100378=T pbc="F F F"
C       -0.09900000       1.67170000       0.03800000
C        0.03530000       0.15120000      -0.03820000
C        0.76180000      -0.47780000       1.17030000
O       -0.02820000      -0.15860000       2.32370000
C        0.85460000      -2.02040000       1.01100000
C       -0.50100000      -2.69380000       0.92090000
O       -0.76650000      -3.56980000       0.13750000
C        2.11920000       0.06420000       1.31980000
C        3.23830000       0.47440000       1.47900000
H        0.88250000       2.15470000       0.04720000
H       -0.65410000       2.04880000      -0.82570000
H       -0.63150000       1.96550000       0.94540000
H       -0.95920000      -0.30780000      -0.09060000
H        0.57000000      -0.14520000      -0.94690000
H        0.53120000      -0.25070000       3.10230000
H        1.45090000      -2.29430000       0.13700000
H        1.36160000      -2.42130000       1.89970000
H       -1.24560000      -2.33090000       1.66000000
H        4.22360000       0.84940000       1.61070000
