14
Properties=species:S:1:pos:R:3 gdb_125350=T pbc="F F F"
C       -0.02000000       1.53960000       0.03520000
C       -0.01120000       0.05350000      -0.02470000
C       -0.03420000      -0.84660000      -1.06330000
N       -0.01320000      -2.17980000      -0.65420000
C        0.02310000      -2.06420000       0.63540000
O        0.05920000      -2.90510000       1.68420000
N        0.08730000      -2.11400000       2.85970000
C        0.06740000      -0.87620000       2.46660000
N        0.02740000      -0.77230000       1.10330000
H        0.87770000       1.94200000       0.52050000
H       -0.05500000       1.94190000      -0.97990000
H       -0.89110000       1.92920000       0.57640000
H       -0.06620000      -0.60290000      -2.11530000
H        0.08140000      -0.04920000       3.15850000
