19
Properties=species:S:1:pos:R:3 gdb_90380=T pbc="F F F"
C        0.00170000       1.55830000      -0.01530000
C        0.07820000       0.06010000      -0.02690000
C        0.62660000      -0.92050000      -1.05910000
C        1.25550000      -1.77870000       0.04100000
C        0.68040000      -0.78400000       1.10750000
O        1.66520000      -0.02630000       1.78140000
C       -0.87400000      -0.80600000      -0.83840000
C       -1.67960000      -1.85850000      -0.28590000
C       -2.35490000      -2.73900000       0.18070000
H        0.95370000       1.98650000       0.31000000
H       -0.23080000       1.94710000      -1.01210000
H       -0.77650000       1.91070000       0.67160000
H        1.04750000      -0.72440000      -2.03880000
H        0.93230000      -2.82230000       0.09300000
H        2.34610000      -1.72200000       0.04100000
H       -0.04580000      -1.20820000       1.81380000
H        2.08270000      -0.59640000       2.43460000
H       -1.36960000      -0.23620000      -1.62140000
H       -2.95590000      -3.51410000       0.58720000
