19
Properties=species:S:1:pos:R:3 gdb_78311=T pbc="F F F"
O       -0.14860000       1.37460000      -0.01880000
C        0.02620000      -0.01470000      -0.04060000
C       -0.38040000      -0.75870000       1.21690000
C       -1.26930000      -0.76940000      -0.02130000
C       -1.29680000      -2.27820000      -0.30700000
O       -2.05800000      -2.61360000      -1.42130000
C       -1.55920000      -2.83440000       1.14740000
C       -0.11500000      -2.26980000       1.36330000
C        0.17120000      -2.75130000      -0.08910000
H        0.58180000       1.75500000       0.48020000
H        0.86390000      -0.34630000      -0.64970000
H       -0.63910000      -0.16940000       2.08960000
H       -2.19540000      -0.21140000      -0.08600000
H       -2.05100000      -3.57130000      -1.51610000
H       -2.37390000      -2.38780000       1.72320000
H       -1.60710000      -3.92770000       1.18570000
H        0.50730000      -2.59990000       2.19340000
H        0.24270000      -3.84150000      -0.13250000
H        0.98390000      -2.31290000      -0.66830000
