16
Properties=species:S:1:pos:R:3 gdb_97190=T pbc="F F F"
C        0.10080000       1.45220000       0.13150000
N       -0.00350000       0.00910000       0.26810000
C       -1.05070000      -0.60610000      -0.04250000
C       -1.19800000      -2.09570000       0.12580000
O       -1.91780000      -2.64820000      -0.96020000
C       -3.22510000      -2.13460000      -1.00500000
C       -3.29880000      -0.61430000      -0.96810000
O       -4.27140000       0.00940000      -1.27120000
O       -2.17380000       0.04910000      -0.55050000
H        0.91600000       1.67590000      -0.56500000
H       -0.81200000       1.94440000      -0.21660000
H        0.39000000       1.87120000       1.10100000
H       -0.20700000      -2.54700000       0.14240000
H       -1.70420000      -2.31850000       1.08100000
H       -3.68840000      -2.46700000      -1.93590000
H       -3.83980000      -2.51020000      -0.16870000
