18
Properties=species:S:1:pos:R:3 gdb_69786=T pbc="F F F"
C        0.03060000       1.55580000       0.01390000
C        0.06590000       0.04870000       0.04540000
C       -0.85470000      -0.74150000       0.95910000
C        0.63490000      -0.83400000       1.13860000
C        1.39910000      -1.94260000       0.43690000
C        0.72500000      -2.98940000      -0.37630000
N        1.27390000      -1.77230000      -1.01730000
C        0.36810000      -0.68060000      -1.25480000
O       -0.03010000      -0.37040000      -2.34480000
H        1.01040000       1.97450000      -0.23850000
H       -0.68210000       1.89500000      -0.74410000
H       -0.27550000       1.96220000       0.98250000
H       -1.39670000      -0.15100000       1.69110000
H       -1.42130000      -1.58420000       0.58020000
H        1.08220000      -0.41280000       2.03080000
H        2.40620000      -2.13450000       0.79660000
H        1.25550000      -3.90400000      -0.62650000
H       -0.35290000      -3.09950000      -0.32530000
