18
Properties=species:S:1:pos:R:3 gdb_86764=T pbc="F F F"
C       -0.09060000       1.59100000       0.12960000
C        0.02700000       0.08980000      -0.09870000
C        1.00610000      -0.40880000      -1.20840000
N        1.73850000      -1.11540000      -0.15320000
C        2.98790000      -1.84430000      -0.14710000
C        4.10810000      -1.06740000      -0.67910000
C        5.01120000      -0.42400000      -1.14120000
C        0.95250000      -0.66990000       0.88430000
O        1.02500000      -0.83090000       2.07480000
H        0.89690000       2.06180000       0.17610000
H       -0.65950000       2.07090000      -0.67290000
H       -0.60100000       1.79060000       1.07630000
H       -0.96000000      -0.37660000      -0.16640000
H        0.57610000      -1.06660000      -1.97130000
H        1.58960000       0.38260000      -1.69070000
H        3.17220000      -2.11850000       0.89820000
H        2.89020000      -2.78060000      -0.71410000
H        5.81950000       0.14130000      -1.53510000
