16
Properties=species:S:1:pos:R:3 gdb_12002=T pbc="F F F"
C       -0.06340000       1.56280000       0.03510000
C        0.00560000       0.03460000      -0.01210000
O       -1.30160000      -0.54320000       0.03860000
C        0.81460000      -0.48690000      -1.19580000
C        1.81350000      -1.28950000      -0.82300000
C        1.86090000      -1.39290000       0.66680000
O        2.09950000      -0.11780000       1.31980000
C        0.75760000      -0.57220000       1.17930000
H        0.93820000       1.98640000       0.13950000
H       -0.51130000       1.95870000      -0.88410000
H       -0.67890000       1.88270000       0.88090000
H       -1.80630000      -0.20450000      -0.70850000
H        0.59400000      -0.18030000      -2.21380000
H        2.52380000      -1.77600000      -1.48020000
H        2.27030000      -2.25560000       1.18240000
H        0.20600000      -0.78090000       2.09200000
