17
Properties=species:S:1:pos:R:3 gdb_55765=T pbc="F F F"
C        0.00630000       1.45990000      -0.11310000
C       -0.02360000      -0.03540000       0.07240000
O       -0.04740000      -0.62390000       1.12020000
O       -0.03350000      -0.66410000      -1.13760000
C       -0.01120000      -2.05970000      -1.08340000
C        1.24360000      -2.86920000      -1.27770000
C        0.06870000      -3.04080000      -2.21210000
O       -0.92220000      -3.89070000      -1.62930000
C       -1.13150000      -2.93620000      -0.54570000
H        0.91890000       1.75130000      -0.64120000
H       -0.84000000       1.77970000      -0.72710000
H       -0.03110000       1.94700000       0.86030000
H        2.06700000      -2.29950000      -1.69820000
H        1.51870000      -3.66080000      -0.58630000
H        0.09910000      -2.94290000      -3.29030000
H       -0.99770000      -3.37740000       0.44520000
H       -2.11940000      -2.47080000      -0.62950000
