17
Properties=species:S:1:pos:R:3 gdb_91636=T pbc="F F F"
C       -0.19850000       1.55140000      -0.05470000
C        0.04040000       0.05250000       0.02030000
O        0.86950000      -0.39840000      -1.08230000
C        1.88000000      -1.20160000      -0.46380000
O        1.26160000      -1.75490000       0.67320000
C        0.83520000      -0.50710000       1.23640000
C        2.15420000       0.27890000       1.31540000
O        3.31130000      -0.54420000       1.45740000
C        2.88400000      -0.20030000       0.13930000
H        0.73830000       2.11320000      -0.03340000
H       -0.71670000       1.79920000      -0.98490000
H       -0.82780000       1.88060000       0.77930000
H       -0.91680000      -0.48070000      -0.03780000
H        2.22950000      -1.97330000      -1.14740000
H        0.27050000      -0.67190000       2.15210000
H        2.21330000       1.28620000       1.71040000
H        3.54490000       0.40050000      -0.47490000
