22
Properties=species:S:1:pos:R:3 gdb_100823=T pbc="F F F"
C       -0.22390000       1.47580000      -0.00640000
C        0.18110000       0.00220000       0.11980000
C        0.75890000      -0.52970000      -1.19360000
O       -0.26850000      -0.46940000      -2.17320000
C        1.12610000      -0.29360000       1.31300000
C        2.47000000       0.44090000       1.27630000
N        0.46230000      -0.02140000       2.58750000
C       -0.25960000      -0.95510000       3.26010000
O       -0.42520000      -2.10240000       2.90060000
H        0.63730000       2.11850000      -0.22230000
H       -0.93650000       1.59410000      -0.82510000
H       -0.69830000       1.83830000       0.91100000
H       -0.72450000      -0.58690000       0.30860000
H        1.62760000       0.07380000      -1.50340000
H        1.10820000      -1.56530000      -1.05140000
H        0.09500000      -0.77060000      -3.01060000
H        1.31050000      -1.37250000       1.31680000
H        2.34130000       1.52780000       1.32590000
H        3.09100000       0.13490000       2.12280000
H        3.01720000       0.21560000       0.35720000
H        0.50770000       0.91020000       2.96930000
H       -0.68370000      -0.54950000       4.20090000
