23
Properties=species:S:1:pos:R:3 gdb_86110=T pbc="F F F"
C        0.14850000       1.59440000       0.00290000
C        0.03660000       0.06480000       0.03020000
C        0.50720000      -0.55110000      -1.30480000
C        0.67770000      -2.05470000      -1.27170000
C        0.51930000      -2.78150000      -2.57810000
C        0.99060000      -2.67920000      -0.13130000
C        1.19300000      -1.97450000       1.15740000
C        2.21840000      -0.84820000       1.23980000
C        0.74780000      -0.53170000       1.23420000
H        1.19580000       1.90600000      -0.08100000
H       -0.39800000       2.01790000      -0.84680000
H       -0.25810000       2.03890000       0.91750000
H       -1.02590000      -0.19530000       0.14270000
H       -0.20770000      -0.27610000      -2.09100000
H        1.45600000      -0.08280000      -1.60890000
H        1.22280000      -2.40450000      -3.33300000
H        0.68930000      -3.85620000      -2.46730000
H       -0.48610000      -2.63530000      -2.99520000
H        1.12520000      -3.75850000      -0.13020000
H        1.07980000      -2.58240000       2.04930000
H        2.76400000      -0.72190000       2.16900000
H        2.80480000      -0.65410000       0.34840000
H        0.33480000      -0.21210000       2.18780000
