17
Properties=species:S:1:pos:R:3 gdb_106870=T pbc="F F F"
O        0.11310000       1.27560000      -0.37340000
C        0.04220000       0.03650000       0.31310000
C       -1.35960000      -0.50290000       0.31840000
C       -2.52110000      -0.11550000       1.24840000
C       -3.03820000      -1.59020000       1.18910000
C       -1.86950000      -1.93370000       0.24580000
N       -1.85930000      -1.06330000      -0.93110000
C       -1.16340000      -3.17790000       0.20100000
N       -0.60240000      -4.18960000       0.20630000
H       -0.10400000       1.09520000      -1.29510000
H        0.71380000      -0.71470000      -0.12580000
H        0.37590000       0.23340000       1.33670000
H       -2.19090000       0.16720000       2.24990000
H       -3.18420000       0.66430000       0.86350000
H       -2.96760000      -2.09750000       2.15240000
H       -4.03270000      -1.76400000       0.76790000
H       -2.79840000      -0.74990000      -1.17310000
