15
Properties=species:S:1:pos:R:3 gdb_126873=T pbc="F F F"
C        0.24460000       1.32120000       0.34860000
C       -0.10180000       0.08460000      -0.47830000
N        0.84970000      -0.11060000      -1.54590000
C        1.60590000      -0.89630000      -2.02230000
N        2.33920000      -1.64640000      -2.69410000
C        3.64490000      -1.97430000      -2.32230000
O        4.18910000      -1.68570000      -1.28430000
N        3.47530000      -1.94240000       1.98610000
N        2.60430000      -1.60160000       1.41000000
H        1.22120000       1.20460000       0.82510000
H        0.27030000       2.21450000      -0.28080000
H       -0.50840000       1.46540000       1.12860000
H       -0.12690000      -0.80800000       0.15560000
H       -1.09120000       0.20090000      -0.93360000
H        4.13920000      -2.56340000      -3.11090000
