19
Properties=species:S:1:pos:R:3 gdb_36868=T pbc="F F F"
C       -0.05520000       1.56200000       0.13870000
C       -0.11530000       0.06290000       0.37120000
C       -1.22680000      -0.75360000      -0.12920000
O        0.04610000      -0.76440000      -0.77970000
C        1.34750000       2.07720000       0.00590000
C        1.97440000       2.50530000      -1.08610000
C        3.37740000       2.91990000      -0.75300000
O        3.51130000       2.69320000       0.64930000
C        2.29530000       2.18040000       1.17710000
H       -0.62630000       1.79440000      -0.76550000
H       -0.55750000       2.05950000       0.98100000
H        0.41980000      -0.29830000       1.25120000
H       -1.50100000      -1.67450000       0.38360000
H       -2.03210000      -0.27690000      -0.68730000
H        1.56110000       2.55860000      -2.08560000
H        4.13250000       2.33170000      -1.29860000
H        3.57050000       3.98090000      -0.98000000
H        1.90740000       2.85490000       1.95970000
H        2.48060000       1.20680000       1.66000000
