18
Properties=species:S:1:pos:R:3 gdb_16574=T pbc="F F F"
C       -0.03650000       1.53920000      -0.11000000
O        1.32960000       1.97460000       0.00950000
C        2.16850000       0.83230000       0.06890000
C        1.36980000      -0.26190000      -0.64300000
C        0.01220000       0.00870000       0.02950000
C        0.13040000      -0.42290000       1.50620000
C        1.26910000       0.34610000       2.20100000
O        2.44610000       0.44850000       1.40150000
H       -0.63580000       2.02860000       0.66630000
H       -0.42730000       1.84090000      -1.09090000
H        3.13250000       1.09010000      -0.37340000
H        1.33680000      -0.07930000      -1.72190000
H        1.77290000      -1.25830000      -0.45440000
H       -0.83410000      -0.47700000      -0.46190000
H       -0.80450000      -0.23910000       2.04840000
H        0.32160000      -1.50140000       1.54570000
H        0.92550000       1.35530000       2.46560000
H        1.57560000      -0.15330000       3.12380000
