12
Properties=species:S:1:pos:R:3 gdb_132391=T pbc="F F F"
N       -0.04680000       1.32610000       0.05540000
C        0.00050000      -0.01640000       0.01060000
N       -1.18010000      -0.67180000       0.02310000
C       -1.03900000      -1.97650000      -0.02310000
F       -2.15310000      -2.67470000      -0.01370000
N        0.07500000      -2.68410000      -0.07780000
C        1.17230000      -1.91040000      -0.08410000
O        2.34610000      -2.53640000      -0.13790000
N        1.21410000      -0.59000000      -0.04260000
H        0.80950000       1.85060000       0.04800000
H       -0.93710000       1.78870000       0.09590000
H        2.14960000      -3.48360000      -0.16290000
