19
Properties=species:S:1:pos:R:3 gdb_79088=T pbc="F F F"
C        0.04320000       1.50350000      -0.01450000
C        0.02890000       0.00200000      -0.03410000
C        0.52780000      -0.95410000      -1.14740000
O        1.87910000      -0.95240000      -1.53560000
C        0.01650000      -1.90620000      -0.04530000
C        0.63840000      -0.97620000       1.06670000
C       -0.32970000      -0.97560000       2.23710000
C       -1.52970000      -0.96280000       1.65320000
C       -1.21580000      -0.95560000       0.16680000
H        1.06190000       1.88410000      -0.14630000
H       -0.57120000       1.91280000      -0.82390000
H       -0.34580000       1.88370000       0.93650000
H       -0.04780000      -0.94210000      -2.07760000
H        2.42900000      -1.01820000      -0.74850000
H        0.00010000      -2.99910000      -0.03980000
H        1.71160000      -0.98480000       1.26950000
H       -0.06890000      -0.97980000       3.28590000
H       -2.51590000      -0.95260000       2.09540000
H       -2.02340000      -0.94660000      -0.56690000
