14
Properties=species:S:1:pos:R:3 gdb_133056=T pbc="F F F"
O       -0.00510000       1.42630000       0.00730000
C       -0.00430000       0.01240000       0.00220000
C       -1.42800000      -0.48460000       0.01280000
C       -2.52580000       0.37320000       0.02400000
N       -3.78280000      -0.09030000       0.03320000
C       -3.91350000      -1.39310000       0.03100000
F       -5.14810000      -1.88250000       0.04000000
C       -2.83340000      -2.27770000       0.01990000
N       -1.59060000      -1.81470000       0.01090000
H        0.90630000       1.73030000       0.00060000
H        0.50020000      -0.39620000      -0.88750000
H        0.51570000      -0.40260000       0.87980000
H       -2.39000000       1.44770000       0.02560000
H       -2.99010000      -3.35220000       0.01860000
