14
Properties=species:S:1:pos:R:3 gdb_42813=T pbc="F F F"
O        0.00710000      -0.00470000       0.01040000
C       -0.02470000       1.18310000      -0.02900000
C       -1.06020000       2.32920000       0.05950000
C       -0.02850000       2.98480000       1.01410000
C        1.01150000       2.34720000       0.02920000
C        0.61290000       3.05810000      -1.28300000
O       -0.83540000       3.01250000      -1.19250000
C        1.07680000       4.44800000      -1.38150000
N        1.46350000       5.53440000      -1.45130000
H       -2.12430000       2.22510000       0.24740000
H       -0.05230000       4.07460000       1.06260000
H       -0.00200000       2.53630000       2.00820000
H        2.06750000       2.21490000       0.24470000
H        0.94720000       2.51250000      -2.17260000
