18
Properties=species:S:1:pos:R:3 gdb_67658=T pbc="F F F"
C       -0.06330000       1.49270000      -0.02000000
C        0.07440000       0.00190000       0.04620000
C        0.76590000      -0.81780000      -0.98580000
C        1.46250000      -2.10580000      -0.58790000
C        0.58800000      -2.57720000       0.56720000
O        0.83400000      -1.72260000       1.72430000
C       -0.23540000      -0.86660000       1.29100000
C       -0.79760000      -1.89220000       0.31040000
N       -0.71080000      -0.94320000      -0.86890000
H        0.76700000       1.98160000       0.50290000
H       -0.06270000       1.83680000      -1.05850000
H       -0.99840000       1.82530000       0.44390000
H        1.09170000      -0.29490000      -1.88090000
H        1.44360000      -2.81430000      -1.42460000
H        2.49770000      -1.96560000      -0.26610000
H        0.64960000      -3.63620000       0.82340000
H       -0.77500000      -0.38160000       2.10610000
H       -1.72970000      -2.44140000       0.40950000
