15
Properties=species:S:1:pos:R:3 gdb_29607=T pbc="F F F"
C       -0.09310000       1.45790000       0.21520000
C        0.00540000      -0.02670000       0.06950000
C       -0.11190000      -0.78660000      -1.05180000
O        0.03960000      -2.11110000      -0.77610000
C        0.26900000      -2.22020000       0.55740000
C        0.25230000      -0.97920000       1.11520000
O        0.46560000      -0.63260000       2.42820000
C       -0.29280000      -1.24710000       3.38100000
O       -0.11540000      -1.06620000       4.54350000
H        0.83540000       1.88090000       0.61270000
H       -0.29730000       1.93240000      -0.74780000
H       -0.89380000       1.73910000       0.90760000
H       -0.29750000      -0.54220000      -2.08480000
H        0.44070000      -3.21000000       0.94430000
H       -1.06020000      -1.90430000       2.93410000
