21
Properties=species:S:1:pos:R:3 gdb_23044=T pbc="F F F"
C        0.28860000       0.87010000       1.37460000
C        0.62040000      -0.33260000       0.51790000
C        0.05680000      -0.47330000      -0.86760000
N        1.49220000      -0.28180000      -0.65180000
C        2.08330000       0.97710000      -1.08110000
C       -0.41300000      -1.76020000      -1.44590000
C        0.33390000      -3.03220000      -1.16380000
N       -1.46840000      -1.66860000      -2.16600000
O       -1.88440000      -2.92100000      -2.64740000
H        0.05000000       1.75590000       0.78190000
H       -0.58100000       0.64790000       2.00150000
H        1.12170000       1.11960000       2.04140000
H        0.76070000      -1.24860000       1.09190000
H       -0.51280000       0.38440000      -1.22440000
H        1.41740000       1.84900000      -0.99970000
H        2.98250000       1.17450000      -0.48840000
H        2.38340000       0.88140000      -2.12920000
H        1.35720000      -2.80340000      -0.86130000
H       -0.15650000      -3.60140000      -0.36530000
H        0.34020000      -3.66900000      -2.05080000
H       -2.64300000      -2.68380000      -3.19080000
