17
Properties=species:S:1:pos:R:3 gdb_95708=T pbc="F F F"
C        0.45750000       1.66320000       0.02950000
C       -0.04910000       0.23050000       0.11130000
C        0.28880000      -0.56280000      -1.14630000
O       -0.36970000      -1.84010000      -1.21130000
C        0.15460000      -2.90550000      -0.55780000
O        0.10240000      -4.00820000      -1.00650000
O        0.74100000      -2.63860000       0.63760000
C        0.15190000      -1.66150000       1.50940000
O        0.55580000      -0.36290000       1.25890000
H        1.53850000       1.68240000      -0.13870000
H       -0.03430000       2.20190000      -0.78510000
H        0.24990000       2.18340000       0.96720000
H       -1.14370000       0.21880000       0.23800000
H       -0.06750000      -0.02920000      -2.03050000
H        1.37320000      -0.69600000      -1.22220000
H       -0.94190000      -1.76220000       1.46160000
H        0.52260000      -1.92590000       2.49980000
