21
Properties=species:S:1:pos:R:3 gdb_71280=T pbc="F F F"
C        0.03340000       1.47670000      -0.05640000
C        0.00450000      -0.04340000       0.03050000
C        0.30660000      -0.76940000      -1.34280000
C       -1.05800000      -1.45320000      -1.26630000
C       -1.29040000      -2.14760000       0.05940000
C       -0.23030000      -2.81700000       0.93160000
C        0.72540000      -1.84340000       1.57300000
C        0.82810000      -0.57650000       1.17620000
C       -1.42080000      -0.65640000      -0.01740000
H        1.05540000       1.84080000      -0.21280000
H       -0.58430000       1.83770000      -0.88510000
H       -0.34570000       1.93010000       0.86700000
H        0.36000000      -0.05110000      -2.16620000
H        1.19410000      -1.40920000      -1.37440000
H       -1.68050000      -1.68930000      -2.12180000
H       -2.24830000      -2.66200000       0.07100000
H       -0.73200000      -3.39230000       1.72140000
H        0.33060000      -3.56300000       0.34930000
H        1.33790000      -2.21930000       2.38870000
H        1.53260000       0.09850000       1.65700000
H       -2.32680000      -0.11710000       0.23460000
