21
Properties=species:S:1:pos:R:3 gdb_80008=T pbc="F F F"
C       -0.04990000       1.59100000       0.01190000
C        0.04530000       0.06750000       0.01250000
C        1.03430000      -0.57410000      -1.00150000
C        2.36680000      -0.15040000      -0.37100000
C        2.20000000      -0.16020000       0.95570000
C        0.75360000      -0.59070000       1.23040000
C        0.73690000      -2.09710000       0.84410000
C       -0.33780000      -2.66590000      -0.05600000
C        0.92530000      -2.08590000      -0.65350000
H        0.92440000       2.06780000       0.13790000
H       -0.48340000       1.94660000      -0.92950000
H       -0.70360000       1.93360000       0.82180000
H       -0.96860000      -0.31590000      -0.11780000
H        0.89510000      -0.32060000      -2.05400000
H        3.28070000       0.03300000      -0.92170000
H        2.94870000       0.01340000       1.71820000
H        0.35770000      -0.35250000       2.21920000
H        1.29730000      -2.77710000       1.47670000
H       -0.40490000      -3.75010000      -0.07250000
H       -1.30130000      -2.18460000      -0.17360000
H        1.62610000      -2.75760000      -1.13760000
