19
Properties=species:S:1:pos:R:3 gdb_57708=T pbc="F F F"
C       -0.54460000       1.37330000      -0.13730000
C       -0.06030000      -0.08030000       0.04730000
C        0.90170000      -0.18410000       1.25020000
C       -1.26700000      -1.05580000       0.21690000
N       -2.06580000      -0.79880000       1.40020000
C       -3.26580000      -0.15070000       1.35100000
O       -3.73980000       0.35730000       0.35910000
C        0.65410000      -0.50830000      -1.16620000
N        1.21050000      -0.85910000      -2.11670000
H        0.30380000       2.03990000      -0.31200000
H       -1.23660000       1.45570000      -0.97770000
H       -1.06520000       1.70370000       0.76460000
H        0.38070000       0.12090000       2.16230000
H        1.27110000      -1.20590000       1.37890000
H        1.76390000       0.47350000       1.11540000
H       -1.92880000      -0.96240000      -0.64650000
H       -0.89230000      -2.08340000       0.25460000
H       -1.80030000      -1.22930000       2.27120000
H       -3.76570000      -0.13690000       2.33920000
