20
Properties=species:S:1:pos:R:3 gdb_106501=T pbc="F F F"
C        0.01710000       1.24630000       0.21870000
O        0.00660000      -0.14100000      -0.05920000
C        0.68170000      -0.53580000      -1.20600000
C        0.38510000      -0.11270000      -2.67400000
N        1.76000000      -0.68380000      -2.96730000
C        2.15170000      -0.19270000      -1.58840000
C        1.50690000      -2.13030000      -2.66530000
C        0.69730000      -2.06820000      -1.34400000
O        1.38140000      -2.71520000      -0.28990000
H        1.03590000       1.62330000       0.38020000
H       -0.44870000       1.82740000      -0.58880000
H       -0.56140000       1.39120000       1.13370000
H       -0.44150000      -0.58750000      -3.21130000
H        0.38220000       0.96570000      -2.84620000
H        2.37320000       0.87580000      -1.62480000
H        2.95810000      -0.74690000      -1.10470000
H        0.96080000      -2.58930000      -3.49240000
H        2.45140000      -2.65930000      -2.52160000
H       -0.32560000      -2.45930000      -1.44030000
H        0.95930000      -2.42830000       0.52880000
