23
Properties=species:S:1:pos:R:3 gdb_118274=T pbc="F F F"
C       -0.02630000       1.40210000       0.04680000
O       -0.00970000      -0.00350000       0.00760000
C        0.67380000      -0.57840000       1.10060000
C        0.67560000      -2.10090000       0.94810000
C        1.39710000      -2.51490000      -0.34160000
C        1.27800000      -2.74180000       2.20960000
C        1.14770000      -4.27890000       2.25120000
C        1.66820000      -4.85320000       3.48600000
C        2.10560000      -5.30130000       4.51220000
H        0.99080000       1.82500000       0.01920000
H       -0.57650000       1.74900000      -0.83140000
H       -0.52770000       1.78080000       0.95200000
H        1.71150000      -0.20020000       1.14470000
H        0.18500000      -0.29050000       2.04740000
H       -0.37680000      -2.40920000       0.87180000
H        1.28970000      -3.58390000      -0.54660000
H        0.98990000      -1.96480000      -1.19250000
H        2.46930000      -2.29210000      -0.27500000
H        2.33910000      -2.47480000       2.29290000
H        0.78600000      -2.33300000       3.10000000
H        0.09140000      -4.55680000       2.13590000
H        1.67360000      -4.72470000       1.39880000
H        2.48850000      -5.70940000       5.41420000
