18
Properties=species:S:1:pos:R:3 gdb_8154=T pbc="F F F"
C        0.18320000       1.57260000       0.10810000
C        0.06980000       0.06340000      -0.00150000
C        0.72290000      -0.57570000      -1.24890000
C        1.21730000      -1.92810000      -0.72350000
O        0.79810000      -3.09790000      -1.35640000
C        2.49940000      -1.92590000       0.08390000
C        1.14910000      -1.82130000       0.76620000
O        0.73740000      -0.53330000       1.12810000
H        1.23280000       1.88140000       0.07520000
H       -0.34950000       2.05660000      -0.71660000
H       -0.24870000       1.92360000       1.04940000
H       -0.99120000      -0.23150000       0.03020000
H       -0.00030000      -0.72940000      -2.05340000
H        1.53880000       0.04850000      -1.63180000
H        1.39850000      -3.27100000      -2.08970000
H        3.01340000      -2.87780000       0.17370000
H        3.13080000      -1.04350000       0.07290000
H        0.78700000      -2.63000000       1.39300000
