18
Properties=species:S:1:pos:R:3 gdb_64155=T pbc="F F F"
C       -0.12970000       1.47200000       0.14690000
C       -0.09550000      -0.05160000      -0.02850000
C       -1.48900000      -0.59380000      -0.36990000
C        0.98500000      -0.50350000      -1.06290000
O        1.91850000      -1.30140000      -0.29920000
C        1.43930000      -1.30350000       0.96170000
C        2.20030000      -2.06020000       1.99910000
O        3.21440000      -2.66980000       1.78400000
N        0.36800000      -0.67210000       1.23510000
H        0.86050000       1.85630000       0.40890000
H       -0.45350000       1.95740000      -0.78020000
H       -0.82480000       1.74780000       0.94410000
H       -1.84820000      -0.16250000      -1.31050000
H       -1.46840000      -1.68250000      -0.47620000
H       -2.19980000      -0.34140000       0.42120000
H        0.58040000      -1.12860000      -1.86420000
H        1.53500000       0.33200000      -1.50530000
H        1.72250000      -1.99700000       2.99580000
