17
Properties=species:S:1:pos:R:3 gdb_43710=T pbc="F F F"
O        0.13270000       0.13620000      -0.70090000
C       -0.02940000       1.16590000      -0.13030000
C       -1.18940000       2.07430000       0.27470000
C       -0.07780000       2.94360000       0.87390000
O        0.92890000       1.97940000       0.42110000
C        0.17020000       4.44750000       0.65550000
C       -0.89180000       4.66760000       1.77630000
C        0.01470000       3.51220000       2.30180000
C        1.23390000       4.34620000       1.79460000
H       -1.74100000       2.49900000      -0.56610000
H       -1.88810000       1.62110000       0.98060000
H        0.25440000       4.97130000      -0.29620000
H       -0.81320000       5.61090000       2.31960000
H       -1.93150000       4.42640000       1.54100000
H       -0.07960000       2.96340000       3.23820000
H        2.14670000       3.79560000       1.56810000
H        1.43710000       5.27110000       2.33920000
