22
Properties=species:S:1:pos:R:3 gdb_88665=T pbc="F F F"
C        0.56820000       1.53030000      -0.24560000
C        0.32040000       0.07020000       0.04950000
N        1.49420000      -0.80520000       0.24290000
C        0.55720000      -0.60540000       1.35740000
C        1.08210000       0.01890000       2.63000000
C        2.21520000      -0.75160000       3.34940000
C        3.03680000       0.54150000       3.15070000
C        4.28090000       0.46710000       2.28910000
O        1.92730000       1.17440000       2.45980000
H        1.39970000       1.90800000       0.34680000
H        0.79230000       1.66410000      -1.30990000
H       -0.32420000       2.12310000      -0.01540000
H       -0.49810000      -0.36140000      -0.52850000
H        1.34670000      -1.71050000      -0.19370000
H       -0.12480000      -1.42730000       1.58600000
H        0.22660000       0.26020000       3.27770000
H        2.01620000      -1.03940000       4.38260000
H        2.59310000      -1.61060000       2.79140000
H        3.24630000       1.07560000       4.08750000
H        4.05540000      -0.04900000       1.35190000
H        4.64370000       1.47320000       2.05460000
H        5.07890000      -0.06810000       2.81660000
