15
Properties=species:S:1:pos:R:3 gdb_5312=T pbc="F F F"
C       -0.30710000       1.52740000       0.11550000
C        0.08990000       0.05900000      -0.07430000
O        0.88450000      -0.08540000      -1.23130000
C        0.83480000      -0.48260000       1.11040000
N        2.01780000      -1.00980000       1.08800000
C        2.26810000      -1.36640000       2.40940000
C        1.19930000      -1.02630000       3.16270000
O        0.26620000      -0.45450000       2.33600000
H        0.58480000       2.14530000       0.25240000
H       -0.83550000       1.87300000      -0.77640000
H       -0.96230000       1.64610000       0.98310000
H       -0.83250000      -0.53540000      -0.18760000
H        1.69260000      -0.54580000      -0.96580000
H        3.19100000      -1.83590000       2.70930000
H        0.93870000      -1.10120000       4.20390000
