20
Properties=species:S:1:pos:R:3 gdb_102768=T pbc="F F F"
C        0.38080000       1.52210000      -0.03720000
C        0.20800000       0.00290000      -0.01150000
C       -1.27160000      -0.44800000      -0.01440000
N       -1.98770000       0.01330000      -1.20780000
C       -2.94130000       0.98180000      -1.16630000
O       -3.23950000       1.63090000      -0.18570000
C       -1.38430000      -1.90180000       0.11290000
C       -1.44540000      -3.10160000       0.19590000
C       -1.53520000      -4.54990000       0.31440000
H        1.44130000       1.78850000      -0.00030000
H       -0.04240000       1.95530000      -0.94790000
H       -0.11840000       1.99350000       0.81500000
H        0.71560000      -0.45690000      -0.86830000
H        0.67480000      -0.41830000       0.88570000
H       -1.78400000       0.04050000       0.82230000
H       -1.87590000      -0.51820000      -2.05720000
H       -3.42170000       1.12500000      -2.15460000
H       -2.32200000      -4.95220000      -0.33310000
H       -0.59350000      -5.03410000       0.03360000
H       -1.76900000      -4.84830000       1.34220000
