20
Properties=species:S:1:pos:R:3 gdb_61622=T pbc="F F F"
C        0.59320000       1.33410000      -0.16970000
C        0.10220000      -0.06490000       0.11150000
N        1.13290000      -1.08310000       0.37950000
C        0.18470000      -0.70080000       1.45850000
C        0.74060000      -0.00220000       2.69710000
C        2.20950000      -0.37760000       3.01410000
O        3.08710000       0.05940000       1.99030000
C        2.62610000       0.21410000       4.28610000
C        2.92980000       0.69740000       5.34320000
H        1.47270000       1.56410000       0.43620000
H        0.87170000       1.43660000      -1.22360000
H       -0.18740000       2.07160000       0.04630000
H       -0.73570000      -0.38720000      -0.50480000
H        0.88720000      -1.98400000      -0.01810000
H       -0.58760000      -1.43660000       1.67070000
H        0.69500000       1.08570000       2.59080000
H        0.11600000      -0.26250000       3.55730000
H        2.26460000      -1.47520000       3.11970000
H        2.75690000      -0.38400000       1.18690000
H        3.21580000       1.12070000       6.27410000
