15
Properties=species:S:1:pos:R:3 gdb_79226=T pbc="F F F"
O       -0.09000000       1.50330000      -0.06380000
C       -0.04430000       0.10760000      -0.07200000
C       -1.36260000      -0.62020000      -0.15790000
C       -1.74490000      -0.75040000      -1.59250000
C       -0.68940000      -0.07750000      -2.45140000
C        0.28850000      -0.64630000      -1.40150000
C        1.64120000      -1.00960000      -1.72630000
N        2.74080000      -1.27130000      -1.97210000
N       -0.76930000      -1.73220000      -0.99710000
H        0.77780000       1.84500000       0.17570000
H        0.56640000      -0.30250000       0.74040000
H       -2.04630000      -0.83920000       0.65260000
H       -2.73600000      -1.07070000      -1.88910000
H       -0.57460000      -0.58540000      -3.41050000
H       -0.70650000       1.00680000      -2.57740000
