18
Properties=species:S:1:pos:R:3 gdb_52116=T pbc="F F F"
O        0.40970000       0.42600000      -1.12980000
C        0.22090000       1.32230000      -0.33370000
N        1.09410000       1.70440000       0.63660000
C        2.42960000       1.13260000       0.74680000
C        3.48690000       2.05160000       0.22070000
C        3.85840000       2.26990000      -1.21180000
C        4.92790000       1.87880000      -0.20720000
C        5.20190000       3.07020000       0.70290000
O        3.78460000       3.22660000       0.99470000
H       -0.71220000       1.91850000      -0.30520000
H        0.88230000       2.52750000       1.17830000
H        2.63440000       0.89210000       1.79580000
H        2.42000000       0.20650000       0.16800000
H        3.56090000       1.47980000      -1.89370000
H        3.83350000       3.27480000      -1.62470000
H        5.53690000       0.99000000      -0.30060000
H        5.75420000       2.81510000       1.61420000
H        5.63360000       3.96940000       0.24760000
