25
Properties=species:S:1:pos:R:3 gdb_109914=T pbc="F F F"
C        0.05550000       1.48910000       0.38410000
C        0.17490000      -0.02480000       0.17100000
C       -1.17380000      -0.71610000      -0.05190000
C       -1.93950000      -0.38330000      -1.37690000
C       -1.07510000      -0.11530000      -2.62400000
C       -2.78810000      -1.62420000      -1.55560000
C       -2.37540000      -2.63830000      -0.79830000
C       -1.17240000      -2.27760000       0.04490000
C        0.10030000      -2.99660000      -0.44130000
H        1.03600000       1.94380000       0.55770000
H       -0.39190000       1.98880000      -0.48120000
H       -0.57410000       1.71360000       1.25250000
H        0.85350000      -0.22750000      -0.66550000
H        0.65180000      -0.46550000       1.05620000
H       -1.83990000      -0.38180000       0.75470000
H       -2.57050000       0.50200000      -1.22460000
H       -0.40110000      -0.95090000      -2.83530000
H       -1.71320000       0.01950000      -3.50430000
H       -0.47050000       0.79050000      -2.51550000
H       -3.60400000      -1.66690000      -2.27060000
H       -2.80280000      -3.63620000      -0.79940000
H       -1.32510000      -2.57200000       1.09230000
H        0.33070000      -2.75290000      -1.48280000
H        0.96940000      -2.73530000       0.17070000
H       -0.03070000      -4.08250000      -0.38050000
