18
Properties=species:S:1:pos:R:3 gdb_79367=T pbc="F F F"
C       -0.16490000       1.56830000       0.04150000
C       -0.02640000       0.06350000      -0.06250000
C        0.90150000      -0.58340000      -1.09010000
C        2.13080000      -0.27540000      -0.18510000
C        2.62360000      -1.72130000      -0.15760000
C        1.09000000      -1.80650000      -0.12180000
C        0.24370000      -2.95120000       0.02130000
C       -0.45770000      -3.92310000       0.12580000
N        1.01610000      -0.58100000       0.86070000
H        0.79120000       2.08330000      -0.09110000
H       -0.85640000       1.94200000      -0.72130000
H       -0.56490000       1.84510000       1.02240000
H       -1.00030000      -0.42620000       0.05470000
H        0.85510000      -0.61670000      -2.18430000
H        2.70740000       0.64580000      -0.12530000
H        3.11000000      -2.10010000      -1.05940000
H        3.13640000      -2.04230000       0.75240000
H       -1.07700000      -4.78020000       0.22410000
