19
Properties=species:S:1:pos:R:3 gdb_42095=T pbc="F F F"
C        0.10280000       1.53600000       0.38880000
C        1.58980000       1.84970000       0.26140000
O        2.17290000       0.55610000       0.25340000
C        1.21470000      -0.36910000      -0.27510000
C        1.60980000      -0.94350000      -1.65680000
C        2.08080000      -2.39410000      -1.40030000
C        1.62080000      -2.66880000       0.01150000
C        1.14970000      -1.58370000       0.61860000
O       -0.01610000       0.34450000      -0.37130000
H       -0.18140000       1.37280000       1.43920000
H       -0.55500000       2.29320000      -0.04560000
H        1.80210000       2.38930000      -0.67380000
H        2.00140000       2.41540000       1.10170000
H        0.72040000      -0.93130000      -2.29090000
H        2.37140000      -0.31630000      -2.12420000
H        1.65730000      -3.10520000      -2.11880000
H        3.17100000      -2.49380000      -1.47780000
H        1.69750000      -3.65260000       0.46250000
H        0.78560000      -1.51500000       1.63650000
