13
Properties=species:S:1:pos:R:3 gdb_124274=T pbc="F F F"
C        0.34320000       1.38930000       0.09100000
C        0.20360000      -0.11210000       0.09870000
O        0.08420000      -0.77550000       1.09730000
C        0.21730000      -0.81510000      -1.26020000
N        0.09520000      -2.14180000      -1.28240000
C        0.12050000      -2.64200000      -2.50800000
N        0.25290000      -1.93430000      -3.63970000
N        0.36830000      -0.62540000      -3.53690000
N        0.35210000      -0.04600000      -2.34700000
H        1.27940000       1.68360000      -0.39370000
H       -0.45870000       1.84500000      -0.49840000
H        0.31530000       1.75300000       1.11800000
H        0.02730000      -3.71820000      -2.62720000
