14
Properties=species:S:1:pos:R:3 gdb_133159=T pbc="F F F"
C       -0.01920000       1.54200000       0.02290000
C       -0.01190000       0.04820000       0.01280000
C       -0.07530000      -0.71540000      -1.10170000
F       -0.15100000      -0.16410000      -2.30340000
N       -0.07190000      -2.08770000      -1.16330000
N       -0.00270000      -2.74310000      -0.07710000
N        0.06360000      -2.06510000       1.07690000
C        0.06820000      -0.67040000       1.27430000
N        0.13370000      -0.08190000       2.40800000
H        0.88530000       1.91780000       0.51230000
H       -0.08310000       1.94480000      -0.98780000
H       -0.86110000       1.90850000       0.61920000
H        0.11550000      -2.67530000       1.88110000
H        0.18420000      -0.73880000       3.18680000
