13
Properties=species:S:1:pos:R:3 gdb_25136=T pbc="F F F"
N       -0.00030000       1.34040000       0.01030000
C       -0.02320000       0.07500000       0.00350000
O        1.17750000      -0.66460000      -0.00700000
C        1.13490000      -2.00950000      -0.01420000
N        0.10200000      -2.75460000      -0.01270000
C       -1.13380000      -2.08890000      -0.00240000
C       -1.21830000      -0.73500000       0.00550000
C       -2.29150000      -2.91630000      -0.00070000
C       -3.27400000      -3.61100000       0.00080000
H        0.95680000       1.69300000       0.00710000
H        2.13610000      -2.43080000      -0.02180000
H       -2.16640000      -0.21560000       0.01340000
H       -4.13870000      -4.22790000       0.00210000
