17
Properties=species:S:1:pos:R:3 gdb_81760=T pbc="F F F"
O       -0.01010000       1.43250000       0.19450000
C       -0.05260000       0.03720000       0.07390000
C       -1.42490000      -0.64880000       0.03530000
C       -2.19530000      -0.21900000      -1.16690000
C       -1.10010000      -1.24820000      -1.36520000
C       -1.32870000      -2.55570000      -1.87510000
C       -1.48850000      -3.66330000      -2.32010000
C        0.26740000      -0.54170000      -1.34500000
O        0.48300000       0.50520000      -2.26970000
H        0.08900000       1.78100000      -0.70110000
H        0.59200000      -0.40250000       0.84100000
H       -1.89190000      -1.16550000       0.86430000
H       -3.20100000      -0.61490000      -1.24810000
H       -2.06400000       0.77830000      -1.57440000
H       -1.63780000      -4.64140000      -2.70500000
H        1.09940000      -1.25410000      -1.34770000
H        0.36850000       0.16720000      -3.16370000
