22
Properties=species:S:1:pos:R:3 gdb_109177=T pbc="F F F"
C        0.37150000       0.74450000       0.84660000
C       -0.24400000       0.43030000      -0.52600000
C       -1.61200000      -0.19030000      -0.42290000
N       -2.64800000       0.39250000      -0.86550000
C       -3.95120000      -0.23270000      -0.67210000
C       -3.97550000      -1.29690000       0.43230000
C       -5.26400000      -2.11980000       0.43510000
C       -2.74540000      -2.17650000       0.23910000
O       -1.54230000      -1.40250000       0.20320000
H        1.36640000       1.18360000       0.72900000
H       -0.24960000       1.45750000       1.39800000
H        0.46600000      -0.16230000       1.44930000
H       -0.34600000       1.33840000      -1.12300000
H        0.41190000      -0.26220000      -1.06750000
H       -4.67610000       0.55990000      -0.45080000
H       -4.27520000      -0.67690000      -1.62530000
H       -3.86960000      -0.78890000       1.40020000
H       -5.38730000      -2.66230000      -0.50960000
H       -5.27050000      -2.85520000       1.24690000
H       -6.13910000      -1.47480000       0.56300000
H       -2.61590000      -2.89140000       1.05660000
H       -2.82800000      -2.74330000      -0.69960000
