21
Properties=species:S:1:pos:R:3 gdb_79258=T pbc="F F F"
C       -0.14600000       1.57950000      -0.05480000
C        0.03280000       0.06360000      -0.00940000
C        0.94110000      -0.53280000      -1.08140000
C        2.35630000      -0.60360000      -0.49080000
C        2.27770000      -0.06110000       0.92810000
C        0.82490000      -0.52720000       1.19850000
C        0.25380000      -0.37470000       2.58510000
O        0.89620000      -1.92750000       0.83590000
C        1.44650000      -1.80980000      -0.46190000
H        0.81100000       2.10760000      -0.09530000
H       -0.71350000       1.87000000      -0.94500000
H       -0.69970000       1.94300000       0.81780000
H       -0.95120000      -0.42090000      -0.03300000
H        0.75790000      -0.42360000      -2.14240000
H        3.24600000      -0.55590000      -1.10410000
H        2.98070000      -0.55290000       1.60740000
H        2.40470000       1.02120000       1.00440000
H        0.19920000       0.68100000       2.86670000
H       -0.75380000      -0.79810000       2.63550000
H        0.87890000      -0.89300000       3.31800000
H        1.61250000      -2.74750000      -0.97300000
