17
Properties=species:S:1:pos:R:3 gdb_29863=T pbc="F F F"
C       -0.01940000       1.49670000       0.00570000
N       -0.00250000       0.04190000      -0.00950000
C       -0.02910000      -0.65650000      -1.17230000
C       -0.00070000      -2.01990000      -1.19980000
C        0.05880000      -2.80060000       0.00790000
O        0.05940000      -4.03530000       0.07250000
C        0.10560000      -1.99680000       1.24900000
N        0.22520000      -2.74390000       2.40160000
C        0.06670000      -0.63600000       1.19420000
H        0.90650000       1.89420000       0.43570000
H       -0.11760000       1.86760000      -1.01490000
H       -0.86540000       1.86670000       0.59460000
H       -0.07890000      -0.05880000      -2.07470000
H       -0.03840000      -2.54130000      -2.14800000
H        0.02510000      -3.71950000       2.20530000
H       -0.19370000      -2.38200000       3.24350000
H        0.09220000      -0.00970000       2.07790000
