17
Properties=species:S:1:pos:R:3 gdb_34996=T pbc="F F F"
N       -0.36980000      -1.17890000      -0.14480000
C       -0.16240000      -0.04220000      -0.07400000
C        0.01970000       1.37960000       0.00650000
C        0.48330000       2.10370000       1.26320000
C        1.28500000       1.35410000       2.33420000
N        2.66490000       1.13680000       1.83120000
C        2.81040000       0.09220000       0.80760000
C        2.67360000       1.51490000       0.40020000
C        1.34710000       2.13680000       0.02890000
H       -0.75980000       1.90340000      -0.54130000
H       -0.11550000       2.95300000       1.57290000
H        1.34640000       1.97900000       3.22990000
H        0.82360000       0.40430000       2.62640000
H        3.79480000      -0.36850000       0.78140000
H        1.99480000      -0.59810000       0.63250000
H        3.54640000       2.05770000       0.04750000
H        1.38460000       3.00830000      -0.61390000
