18
Properties=species:S:1:pos:R:3 gdb_45897=T pbc="F F F"
O       -0.01710000      -0.17780000      -0.00500000
C       -0.01780000       1.03350000       0.07420000
C       -1.28460000       1.87140000      -0.03860000
C       -1.63640000       2.42340000       1.31660000
C       -1.23780000       3.62160000       1.73650000
C       -0.46690000       4.59570000       0.87810000
C        0.96450000       4.21120000       0.56650000
C        1.58090000       3.04150000       0.34750000
N        1.17560000       1.70110000       0.30280000
H       -1.12340000       2.67630000      -0.76280000
H       -2.05820000       1.20360000      -0.42060000
H       -2.17160000       1.75640000       1.98670000
H       -1.46330000       3.93280000       2.75280000
H       -1.01130000       4.78100000      -0.06100000
H       -0.43860000       5.56680000       1.38190000
H        1.63840000       5.06070000       0.49030000
H        2.65050000       3.10110000       0.16520000
H        1.93620000       1.03600000       0.32200000
