16
Properties=species:S:1:pos:R:3 gdb_124770=T pbc="F F F"
C       -0.54360000       1.37180000       0.10080000
C        0.13190000       0.01100000      -0.14510000
O        1.05760000       0.10360000      -1.19750000
C        0.79410000      -0.50020000       1.12020000
C        0.08900000      -0.88730000       2.26950000
N        0.70230000      -1.31960000       3.36230000
N        2.03690000      -1.38050000       3.36510000
C        2.67420000      -1.00960000       2.26080000
N        2.11820000      -0.57180000       1.12450000
H        0.19730000       2.10890000       0.42410000
H       -0.99010000       1.71710000      -0.83450000
H       -1.32980000       1.30420000       0.85940000
H       -0.64780000      -0.71530000      -0.42530000
H        1.93470000      -0.02250000      -0.80370000
H       -0.99580000      -0.85810000       2.31240000
H        3.75790000      -1.07500000       2.29230000
