11
Properties=species:S:1:pos:R:3 gdb_4295=T pbc="F F F"
O       -0.11370000       1.29300000       0.01010000
C        0.04450000      -0.02570000       0.00250000
N        1.19030000      -0.58720000      -0.00680000
C        1.26330000      -1.99760000      -0.01450000
O        2.32360000      -2.57950000      -0.02340000
C       -0.04140000      -2.68690000      -0.01070000
C       -1.16940000      -1.97660000      -0.00080000
O       -1.16990000      -0.60790000       0.00630000
H        0.77870000       1.66870000       0.00700000
H       -0.06330000      -3.76820000      -0.01610000
H       -2.18020000      -2.36170000       0.00290000
