20
Properties=species:S:1:pos:R:3 gdb_54592=T pbc="F F F"
N        0.10280000       1.13510000       0.64460000
C       -0.02180000       0.09580000      -0.23690000
O        0.85980000      -0.18940000      -1.02910000
C       -1.30130000      -0.70000000      -0.16620000
C       -2.27930000      -0.62090000       1.03190000
C       -2.38090000      -2.17660000       1.04060000
C       -1.26200000      -2.27480000      -0.03630000
C       -1.76290000      -2.42700000      -1.48630000
C       -1.99560000      -0.89050000      -1.56010000
H        0.89990000       1.74110000       0.53110000
H       -0.68440000       1.48020000       1.16510000
H       -1.80380000      -0.24680000       1.94370000
H       -3.20570000      -0.06130000       0.86880000
H       -2.13610000      -2.63690000       2.00000000
H       -3.34550000      -2.57250000       0.71060000
H       -0.35380000      -2.80440000       0.25130000
H       -0.97000000      -2.74740000      -2.16560000
H       -2.63390000      -3.07290000      -1.63310000
H       -3.04250000      -0.57380000      -1.56820000
H       -1.46750000      -0.39630000      -2.37600000
