19
Properties=species:S:1:pos:R:3 gdb_40021=T pbc="F F F"
C       -0.25820000       1.48460000       0.02660000
O        1.07390000       0.99830000      -0.08800000
C       -0.01220000       0.03370000       0.00100000
C       -0.10720000      -0.74060000       1.31250000
C        0.22630000      -2.22970000       1.20960000
C       -0.86130000      -3.22580000       0.89010000
C        0.19480000      -2.89310000      -0.14690000
C       -0.13660000      -2.05260000      -1.31980000
C       -0.23180000      -0.72320000      -1.25580000
H       -0.50530000       1.96360000       0.97520000
H       -0.65770000       1.98500000      -0.85600000
H        0.56540000      -0.25280000       2.02340000
H       -1.12300000      -0.62140000       1.70900000
H        0.99870000      -2.57400000       1.88880000
H       -0.82630000      -4.20340000       1.35880000
H       -1.86160000      -2.83890000       0.72140000
H        0.92700000      -3.67270000      -0.33870000
H       -0.28280000      -2.55910000      -2.27100000
H       -0.43330000      -0.13710000      -2.14780000
