20
Properties=species:S:1:pos:R:3 gdb_107112=T pbc="F F F"
C        0.33550000       1.38460000      -0.08980000
C        0.09230000      -0.08900000      -0.00140000
C       -0.98080000      -0.73870000       0.82280000
C        0.46090000      -1.13000000       1.03630000
C        1.02460000      -1.97380000      -0.12360000
C        2.44800000      -2.48140000      -0.12510000
O        2.96290000      -2.53690000      -1.43790000
C        0.06420000      -2.27500000      -1.20000000
N        0.67060000      -0.91920000      -1.14570000
H        1.38510000       1.59310000      -0.32010000
H       -0.27490000       1.83010000      -0.88440000
H        0.08130000       1.87860000       0.85270000
H       -1.36580000      -0.08270000       1.59860000
H       -1.73080000      -1.42050000       0.43790000
H        0.97040000      -1.01490000       1.98440000
H        3.05740000      -1.82700000       0.52210000
H        2.50400000      -3.49480000       0.29030000
H        2.69650000      -1.70210000      -1.85040000
H        0.45300000      -2.84020000      -2.04090000
H       -0.99360000      -2.41630000      -1.01600000
