16
Properties=species:S:1:pos:R:3 gdb_4788=T pbc="F F F"
C       -0.08960000       1.42660000       0.16510000
N       -0.05580000       0.00490000      -0.13760000
C       -1.18450000      -0.75870000      -0.06180000
N       -1.25610000      -2.05060000       0.06670000
C       -2.62770000      -2.31830000       0.01220000
C       -3.15280000      -3.70910000       0.11880000
C       -3.30030000      -1.15710000      -0.13770000
O       -2.37080000      -0.12590000      -0.18520000
H        0.88480000       1.85720000      -0.07470000
H       -0.84160000       1.91510000      -0.45780000
H       -0.32240000       1.64390000       1.21750000
H        0.76360000      -0.50210000       0.15950000
H       -2.84480000      -4.17020000       1.06350000
H       -4.24450000      -3.72390000       0.06700000
H       -2.75970000      -4.33700000      -0.68810000
H       -4.33330000      -0.86880000      -0.21490000
