17
Properties=species:S:1:pos:R:3 gdb_111083=T pbc="F F F"
C       -0.02460000       1.34220000      -0.19230000
O       -0.07280000       0.04150000       0.36690000
C       -1.31100000      -0.57890000       0.22240000
C       -1.57700000      -1.34660000      -1.11560000
C       -0.61340000      -2.43780000      -0.60590000
C       -1.28990000      -2.05380000       0.75740000
C       -2.72940000      -2.41920000       0.43150000
O       -3.58570000      -2.98070000       1.04210000
O       -2.88960000      -1.91440000      -0.84370000
H        0.96800000       1.74350000       0.02090000
H       -0.17810000       1.32830000      -1.28040000
H       -0.78220000       1.99910000       0.25890000
H       -2.13390000       0.06700000       0.56060000
H       -1.56520000      -0.91050000      -2.11160000
H       -0.75960000      -3.45040000      -0.98600000
H        0.43190000      -2.13650000      -0.64450000
H       -0.91210000      -2.32880000       1.73750000
