11
Properties=species:S:1:pos:R:3 gdb_232=T pbc="F F F"
C       -0.02650000       1.46400000       0.01190000
C       -0.02060000       0.01060000      -0.00070000
C       -0.00720000      -1.19450000      -0.01180000
C        0.08430000      -2.64700000      -0.02350000
N       -1.12920000      -3.27450000      -0.03260000
O        1.14350000      -3.24440000      -0.03280000
H        0.99310000       1.86290000       0.01820000
H       -0.53920000       1.86190000      -0.87050000
H       -0.54430000       1.84690000       0.89800000
H       -1.98880000      -2.75910000       0.03570000
H       -1.14590000      -4.28030000       0.00580000
