18
Properties=species:S:1:pos:R:3 gdb_84959=T pbc="F F F"
C        0.37860000       1.67590000       0.04440000
C       -0.03400000       0.20110000      -0.07810000
N        0.50180000      -0.42610000      -1.31030000
C       -0.39900000      -1.43580000      -1.86490000
C        1.82490000      -0.98460000      -0.97130000
C        1.75380000      -1.39510000       0.49390000
O        2.46490000      -2.13790000       1.11320000
C        0.53250000      -0.62120000       1.07720000
O        0.16190000      -0.67410000       2.21840000
H        1.46760000       1.78780000       0.05790000
H       -0.00730000       2.23770000      -0.80950000
H       -0.01790000       2.10270000       0.96980000
H       -1.12510000       0.13290000      -0.07270000
H       -1.35480000      -0.96760000      -2.11690000
H        0.03070000      -1.83550000      -2.78790000
H       -0.60550000      -2.28720000      -1.19030000
H        2.08750000      -1.82680000      -1.61460000
H        2.61080000      -0.22530000      -1.09280000
