19
Properties=species:S:1:pos:R:3 gdb_90050=T pbc="F F F"
C       -0.21710000       1.59930000      -0.07750000
C        0.04120000       0.09740000      -0.01050000
C        1.04450000      -0.55160000      -1.05000000
C        1.98400000      -0.82710000       0.13720000
C        2.70020000       0.38770000       0.82910000
C        2.10600000      -0.37360000       2.02610000
C        0.82090000      -0.62820000       1.19240000
C        2.58440000      -1.69760000       1.25390000
O        2.99250000      -2.78790000       1.48660000
H        0.68930000       2.19300000      -0.21460000
H       -0.87860000       1.82320000      -0.92210000
H       -0.71340000       1.94780000       0.83410000
H       -0.92930000      -0.40260000      -0.06020000
H        0.63560000      -1.45080000      -1.51650000
H        1.44720000       0.10400000      -1.82640000
H        3.78710000       0.42710000       0.73420000
H        2.25770000       1.36270000       0.64380000
H        2.22040000      -0.15820000       3.08850000
H        0.26180000      -1.51880000       1.48820000
