16
Properties=species:S:1:pos:R:3 gdb_66765=T pbc="F F F"
O       -0.08070000       1.41370000      -0.01970000
C       -0.00650000       0.04130000       0.00490000
C       -1.23160000      -0.90590000       0.14890000
C       -0.47980000      -1.87510000      -0.66950000
C        0.54840000      -0.82160000      -1.19920000
C        1.96450000      -1.15020000      -0.84560000
C        2.08010000      -1.14170000       0.49420000
C        0.74850000      -0.80150000       1.07300000
N       -0.33680000      -1.89350000       0.81410000
H        0.81170000       1.76430000      -0.13120000
H       -2.27450000      -0.76190000       0.39260000
H       -0.79210000      -2.79150000      -1.15290000
H        0.32110000      -0.45010000      -2.19820000
H        2.73550000      -1.41940000      -1.55760000
H        2.95840000      -1.40600000       1.06990000
H        0.68510000      -0.49120000       2.11490000
