18
Properties=species:S:1:pos:R:3 gdb_91966=T pbc="F F F"
O        0.10330000       1.42310000      -0.12820000
C        0.03800000       0.01470000       0.00360000
C        0.62950000      -0.47260000       1.35540000
C       -0.57110000      -0.52330000       2.28010000
O       -1.40780000       0.64770000       2.18200000
C       -1.79920000      -0.54990000       1.47480000
C       -1.41350000      -0.49580000       0.02680000
C       -2.34550000      -0.24500000      -1.09160000
N       -1.88120000      -1.61700000      -0.80600000
H       -0.40820000       1.77530000       0.61310000
H        0.58720000      -0.39050000      -0.85200000
H        1.05640000      -1.47870000       1.26520000
H        1.41690000       0.20460000       1.69660000
H       -0.50720000      -0.95910000       3.27320000
H       -2.72900000      -1.01260000       1.79040000
H       -3.40030000      -0.07180000      -0.89710000
H       -1.94960000       0.27700000      -1.95830000
H       -1.15610000      -1.88250000      -1.46900000
