21
Properties=species:S:1:pos:R:3 gdb_119288=T pbc="F F F"
C        0.08230000       1.56880000       0.19400000
C       -0.05500000       0.06270000       0.05070000
O        0.74270000      -0.34640000      -1.05280000
C        0.70340000      -1.72320000      -1.34880000
C       -0.62310000      -2.28910000      -1.97260000
C        0.23370000      -2.99020000      -3.05900000
C        1.41050000      -2.04740000      -2.69680000
C        1.19470000      -2.54800000      -0.24210000
C        1.59800000      -3.23300000       0.66070000
H        1.12640000       1.84280000       0.36940000
H       -0.25680000       2.07660000      -0.71350000
H       -0.51720000       1.92610000       1.03680000
H        0.27530000      -0.44860000       0.96580000
H       -1.10700000      -0.21550000      -0.11980000
H       -1.26040000      -2.90620000      -1.33770000
H       -1.20360000      -1.45930000      -2.38490000
H        0.44840000      -4.02940000      -2.79930000
H       -0.13590000      -2.95470000      -4.08500000
H        1.41850000      -1.14220000      -3.30840000
H        2.41710000      -2.46350000      -2.64190000
H        1.95850000      -3.83480000       1.45820000
