17
Properties=species:S:1:pos:R:3 gdb_3010=T pbc="F F F"
C        0.12250000       1.70070000      -0.13960000
C        0.02410000       0.18060000       0.04510000
C        0.60600000      -0.57670000      -1.15120000
O       -0.13070000      -0.20950000      -2.30820000
C        0.71900000      -0.25640000       1.31560000
C       -0.00120000      -0.45450000       2.57850000
O        0.42770000      -1.57200000       1.79780000
H        1.16970000       2.02470000      -0.17390000
H       -0.35020000       1.99760000      -1.07770000
H       -0.36560000       2.23210000       0.68310000
H       -1.03220000      -0.10570000       0.12300000
H        1.67450000      -0.32310000      -1.26240000
H        0.53770000      -1.65700000      -0.95780000
H        0.21850000      -0.70180000      -3.05630000
H        1.77820000       0.00680000       1.37810000
H        0.51470000      -0.32140000       3.52850000
H       -1.07830000      -0.29370000       2.60940000
