16
Properties=species:S:1:pos:R:3 gdb_49102=T pbc="F F F"
O       -0.02990000      -0.10860000       0.15640000
C       -0.01110000       1.11040000       0.12310000
C        1.19170000       1.89470000       0.01280000
C        1.27180000       3.25610000      -0.05880000
N        2.57300000       3.68970000      -0.23450000
C        3.48500000       2.57050000       0.06510000
C        2.58730000       1.32300000      -0.12470000
C        0.21370000       4.19710000      -0.00570000
C       -0.65670000       5.02690000       0.04890000
H       -0.95060000       1.70110000       0.18660000
H        2.81050000       4.61630000       0.08710000
H        4.34940000       2.58750000      -0.60290000
H        3.84940000       2.63910000       1.09970000
H        2.79430000       0.53600000       0.60380000
H        2.72360000       0.87970000      -1.11900000
H       -1.44030000       5.74290000       0.09450000
