20
Properties=species:S:1:pos:R:3 gdb_126443=T pbc="F F F"
C       -0.24600000       1.54550000       0.01360000
C       -0.06610000       0.01770000      -0.01360000
C        0.70650000      -0.46670000      -1.20220000
N        0.10720000      -0.70530000      -2.37370000
N        1.10530000      -1.08660000      -3.15730000
N        2.30920000      -1.13210000      -2.60570000
C        2.08910000      -0.73480000      -1.34790000
C        3.20790000      -0.61720000      -0.35860000
C        3.94060000       0.73400000      -0.42660000
H        0.72010000       2.05910000       0.04820000
H       -0.77370000       1.88600000      -0.88190000
H       -0.82420000       1.85290000       0.89050000
H        0.43870000      -0.30870000       0.90260000
H       -1.05020000      -0.46200000      -0.01940000
H        0.95160000      -1.35930000      -4.11420000
H        2.81350000      -0.77020000       0.65230000
H        3.92250000      -1.42560000      -0.54390000
H        4.36510000       0.89090000      -1.42230000
H        3.26060000       1.56610000      -0.21790000
H        4.75500000       0.77140000       0.30360000
