19
Properties=species:S:1:pos:R:3 gdb_114671=T pbc="F F F"
O       -0.17110000       1.46380000      -0.01020000
C        0.01980000       0.05890000       0.07910000
C       -1.34910000      -0.59250000      -0.03840000
C       -2.06180000      -0.41950000      -1.42300000
C       -2.30410000      -1.90680000      -1.71760000
O       -2.75370000      -2.42450000      -0.41190000
C       -1.37060000      -2.13340000      -0.00500000
C       -0.93990000      -2.58530000      -1.42860000
O       -0.90920000      -3.97110000      -1.61970000
H        0.68960000       1.88940000       0.04350000
H        0.68970000      -0.29870000      -0.71910000
H        0.48150000      -0.21900000       1.04090000
H       -1.97760000      -0.20690000       0.76900000
H       -2.99500000       0.14100000      -1.35050000
H       -1.42490000       0.06490000      -2.16860000
H       -2.93860000      -2.20240000      -2.55350000
H       -1.05500000      -2.65910000       0.89720000
H       -0.03460000      -2.17160000      -1.87870000
H       -1.72080000      -4.31040000      -1.21900000
