14
Properties=species:S:1:pos:R:3 gdb_123710=T pbc="F F F"
C        0.00170000       1.47840000       0.10200000
C        1.29310000       0.72610000       0.04060000
O        1.98980000       0.44930000       1.26640000
C        1.16800000      -0.38150000       1.94520000
N        1.24270000      -0.95440000       3.12820000
N        0.09570000      -1.67200000       3.12210000
N       -0.68520000      -1.58510000       2.03710000
C       -0.00130000      -0.74520000       1.27230000
C       -0.03730000      -0.04460000      -0.02450000
H       -0.30370000       1.92080000       1.04360000
H       -0.26160000       2.05000000      -0.78120000
H        1.97890000       0.83440000      -0.78900000
H       -0.14380000      -2.26920000       3.89480000
H       -0.40210000      -0.50840000      -0.93200000
