17
Properties=species:S:1:pos:R:3 gdb_32335=T pbc="F F F"
C        0.04570000       1.57980000       0.14530000
C        0.00450000       0.06810000      -0.12590000
C       -1.39480000      -0.48770000      -0.11650000
C       -1.99020000      -1.02790000      -1.21460000
N       -3.26740000      -1.50600000      -1.13510000
C       -4.03770000      -1.48150000       0.03040000
O       -5.17480000      -1.91690000       0.06580000
C       -3.29480000      -0.88140000       1.14410000
N       -2.08360000      -0.42540000       1.07560000
H        1.07800000       1.93890000       0.19430000
H       -0.47200000       2.13560000      -0.64320000
H       -0.44380000       1.80680000       1.09620000
H        0.47790000      -0.15580000      -1.08850000
H        0.59100000      -0.44940000       0.64310000
H       -1.50230000      -1.10760000      -2.17860000
H       -3.71870000      -1.91060000      -1.94450000
H       -3.82430000      -0.82770000       2.09290000
