15
Properties=species:S:1:pos:R:3 gdb_45400=T pbc="F F F"
O       -0.04300000       0.00310000       0.04410000
C       -0.04120000       1.19750000      -0.00250000
N       -1.04180000       2.14920000       0.07130000
C       -0.18150000       3.32480000       0.01080000
C        0.43580000       3.80760000       1.34550000
N        1.43150000       2.70370000       1.30700000
C        1.04000000       2.33610000      -0.09290000
C        2.04410000       2.33080000      -1.11240000
C        2.90240000       2.31750000      -1.95520000
H       -1.98470000       2.05220000       0.42140000
H       -0.44570000       4.05840000      -0.74940000
H        0.87260000       4.80790000       1.24260000
H       -0.21660000       3.79030000       2.22440000
H        2.39450000       3.01140000       1.37030000
H        3.65440000       2.29510000      -2.70510000
