18
Properties=species:S:1:pos:R:3 gdb_35280=T pbc="F F F"
N       -0.26940000      -1.11250000       0.43290000
C       -0.14260000       0.01580000       0.20820000
C        0.02370000       1.41390000      -0.07310000
C        0.59810000       2.32970000       1.00020000
C        1.42200000       2.00530000      -0.20960000
C        2.65740000       1.13310000      -0.11030000
C        3.87980000       1.94900000       0.24100000
C        5.19410000       1.68550000      -0.35490000
O        4.39640000       2.78520000      -0.79950000
H       -0.74780000       1.82710000      -0.71360000
H        0.15350000       3.31360000       1.09300000
H        0.86850000       1.86330000       1.94110000
H        1.49670000       2.78670000      -0.95990000
H        2.50910000       0.35200000       0.64470000
H        2.82870000       0.62690000      -1.06690000
H        3.85310000       2.43370000       1.21880000
H        6.09980000       1.95300000       0.18710000
H        5.30400000       0.86980000      -1.06830000
