14
Properties=species:S:1:pos:R:3 gdb_98943=T pbc="F F F"
N        0.05330000       1.03950000      -0.62940000
C       -0.27800000       0.03890000       0.36160000
C        0.89530000      -0.47210000       1.18290000
O        2.04270000      -0.15310000       1.07590000
O        0.45050000      -1.38380000       2.12520000
C        1.37440000      -2.05500000       2.88440000
N        1.18990000      -2.13530000       4.12780000
C        2.44070000      -2.71590000       2.15890000
N        3.28640000      -3.31530000       1.64690000
H        0.46860000       1.84860000      -0.17720000
H        0.76800000       0.68000000      -1.25510000
H       -1.02890000       0.42620000       1.06000000
H       -0.74520000      -0.83050000      -0.11730000
H        1.89640000      -2.72330000       4.56930000
