15
Properties=species:S:1:pos:R:3 gdb_132853=T pbc="F F F"
C       -0.03050000       1.51500000       0.01230000
C       -0.00340000       0.01760000      -0.03850000
C       -0.02260000      -0.70370000      -1.19600000
C        0.00540000      -2.12210000      -1.17810000
F       -0.01490000      -2.78910000      -2.33850000
C        0.05200000      -2.79000000      -0.00130000
N        0.07110000      -2.06370000       1.15860000
C        0.04690000      -0.66760000       1.25420000
O        0.06790000      -0.11890000       2.34700000
H        0.85490000       1.89720000       0.53170000
H       -0.07310000       1.94980000      -0.98890000
H       -0.89220000       1.86320000       0.59190000
H       -0.06000000      -0.20690000      -2.16090000
H        0.07510000      -3.86850000       0.07250000
H        0.10590000      -2.53910000       2.04940000
