14
Properties=species:S:1:pos:R:3 gdb_9203=T pbc="F F F"
O        0.06530000       1.33690000       0.00770000
C       -0.04910000      -0.06170000       0.00270000
C       -1.52360000      -0.42930000       0.01450000
O       -2.45040000       0.33200000       0.02740000
O       -1.64110000      -1.77660000       0.00840000
C       -3.00020000      -2.25980000       0.01880000
C       -2.98060000      -3.71200000       0.01010000
C       -3.00090000      -4.91220000       0.00360000
H        1.00130000       1.55670000      -0.00050000
H        0.40030000      -0.52990000      -0.88710000
H        0.41620000      -0.53750000       0.88030000
H       -3.51320000      -1.87390000       0.90640000
H       -3.53040000      -1.86370000      -0.85400000
H       -3.01660000      -5.97420000      -0.00160000
