18
Properties=species:S:1:pos:R:3 gdb_73299=T pbc="F F F"
O        0.11360000       1.34500000       0.09000000
C        0.05960000      -0.03250000       0.07010000
C        0.94570000      -0.75620000       1.07220000
C        0.60500000      -2.23090000       0.71490000
C       -0.40320000      -1.99920000      -0.41410000
O       -0.92990000      -3.09230000      -1.09930000
C       -1.31230000      -0.77160000      -0.06000000
N       -1.36250000      -0.32140000      -1.50340000
C        0.05580000      -0.80720000      -1.29270000
H       -0.50110000       1.63570000      -0.60040000
H        2.00110000      -0.51310000       0.92180000
H        0.68610000      -0.49090000       2.10080000
H        1.47130000      -2.80100000       0.36730000
H        0.16100000      -2.77780000       1.55430000
H       -1.39150000      -3.65450000      -0.46790000
H       -2.17960000      -0.72010000       0.60250000
H       -1.87140000      -1.01780000      -2.05360000
H        0.80430000      -0.79910000      -2.08740000
