21
Properties=species:S:1:pos:R:3 gdb_76500=T pbc="F F F"
C       -0.16620000       0.81800000      -2.01430000
C       -0.01450000      -0.35840000      -1.07250000
C        1.29990000      -0.65510000      -0.33730000
C        2.53690000       0.20210000      -0.49820000
C        0.10430000      -0.14280000       0.40380000
O        0.11510000       1.18640000       0.97010000
C       -0.50270000       0.67350000       2.15790000
C       -1.85880000       0.11410000       1.86530000
C       -0.61880000      -0.72190000       1.59380000
H        0.26850000       1.72750000      -1.59470000
H        0.31180000       0.62120000      -2.98020000
H       -1.22540000       1.02280000      -2.20300000
H       -0.57580000      -1.24290000      -1.36690000
H        1.50420000      -1.71510000      -0.19750000
H        2.29640000       1.26610000      -0.45210000
H        3.25090000      -0.00330000       0.30650000
H        3.04050000       0.00220000      -1.45010000
H       -0.15900000       1.05890000       3.11020000
H       -2.43270000      -0.19590000       2.73350000
H       -2.44080000       0.52070000       1.04340000
H       -0.43220000      -1.68720000       2.04430000
