21
Properties=species:S:1:pos:R:3 gdb_92464=T pbc="F F F"
C       -0.15920000       1.54620000      -0.02600000
C        0.04620000       0.03500000       0.01300000
O        0.75830000      -0.35940000      -1.16620000
C        1.85480000      -1.25580000      -0.89330000
C        2.91760000      -0.45210000      -0.11290000
C        2.26920000       0.00940000       1.22100000
C        0.80140000      -0.50110000       1.26040000
C        0.83470000      -2.00420000       1.11170000
C        1.38770000      -2.40670000      -0.03350000
H        0.79120000       2.08600000       0.00160000
H       -0.67310000       1.82270000      -0.95090000
H       -0.77430000       1.87410000       0.81890000
H       -0.94330000      -0.44770000      -0.00900000
H        2.22180000      -1.57160000      -1.87130000
H        3.80720000      -1.06550000       0.05990000
H        3.21760000       0.40490000      -0.72330000
H        2.80940000      -0.38950000       2.08350000
H        2.29300000       1.09880000       1.31000000
H        0.29390000      -0.17770000       2.17230000
H        0.42500000      -2.66600000       1.86710000
H        1.50450000      -3.43920000      -0.34250000
