22
Properties=species:S:1:pos:R:3 gdb_76765=T pbc="F F F"
C        0.18700000       1.54610000       0.01160000
C        0.07900000       0.03320000       0.05390000
N        0.98420000      -0.70540000      -0.87110000
C        0.39930000      -1.29040000      -2.05660000
C        1.43870000      -1.61260000       0.20450000
C        2.72270000      -1.10130000       0.86870000
O        1.96380000      -0.18010000       1.69520000
C        0.69910000      -0.73860000       1.25260000
C       -0.16940000      -1.17930000       2.40000000
H        1.20390000       1.85410000       0.26480000
H       -0.05680000       1.92390000      -0.98680000
H       -0.50700000       2.00660000       0.72350000
H       -0.96980000      -0.28560000      -0.07800000
H        0.04520000      -0.49610000      -2.72240000
H        1.15440000      -1.86670000      -2.60200000
H       -0.45740000      -1.96070000      -1.84750000
H        1.28620000      -2.68320000       0.04620000
H        3.25320000      -1.83690000       1.48800000
H        3.42380000      -0.58790000       0.20350000
H       -0.46240000      -0.31190000       3.00300000
H       -1.08010000      -1.66770000       2.04000000
H        0.36820000      -1.87400000       3.05200000
