16
Properties=species:S:1:pos:R:3 gdb_70710=T pbc="F F F"
N       -0.07450000       1.41580000       0.19960000
C       -0.04890000      -0.01710000       0.04580000
C       -0.44910000      -0.71290000      -1.26290000
C       -1.32060000      -0.81440000      -0.04370000
O       -1.33680000      -2.07240000       0.58730000
C       -0.53010000      -2.08640000       1.71640000
O        0.84860000      -1.81980000       1.40500000
C        1.10050000      -0.63610000       0.79390000
O        2.19250000      -0.13850000       0.83640000
H        0.88850000       1.74280000       0.16750000
H       -0.56360000       1.85190000      -0.57540000
H       -0.76430000      -0.06320000      -2.07330000
H        0.07260000      -1.61450000      -1.56360000
H       -2.27100000      -0.28740000      -0.00720000
H       -0.86060000      -1.35020000       2.46210000
H       -0.54960000      -3.09430000       2.13070000
