17
Properties=species:S:1:pos:R:3 gdb_83011=T pbc="F F F"
O        0.02470000       1.48220000       0.19690000
C       -0.02010000       0.09910000       0.10150000
C       -0.46670000      -0.78430000       1.23690000
O       -1.13290000      -0.20680000       2.33150000
C       -2.44610000       0.18710000       1.97910000
C       -2.64760000       1.68510000       1.70010000
O       -2.68520000       1.45460000       0.26150000
C       -2.59610000       0.00300000       0.45020000
C       -1.32810000      -0.67390000      -0.01720000
H       -0.84520000       1.80970000      -0.07600000
H        0.79520000      -0.31270000      -0.49300000
H        0.08930000      -1.67760000       1.50260000
H       -3.16490000      -0.28600000       2.65380000
H       -3.59750000       2.10060000       2.05270000
H       -1.81070000       2.32180000       1.99720000
H       -3.49970000      -0.48300000       0.07380000
H       -1.41170000      -1.47260000      -0.74390000
