21
Properties=species:S:1:pos:R:3 gdb_108209=T pbc="F F F"
O       -0.10320000       1.42000000       0.04850000
C       -0.03550000      -0.00030000      -0.01510000
C       -1.44920000      -0.53630000      -0.00890000
C       -2.32480000      -0.14200000      -1.22820000
C       -3.52210000      -1.14190000      -1.13830000
C       -3.14860000      -1.97050000       0.10600000
C       -1.62110000      -2.07360000       0.00070000
O       -3.33750000      -1.14760000       1.26610000
C       -2.26100000      -0.19110000       1.25740000
H        0.79400000       1.76580000       0.05070000
H        0.48290000      -0.33200000      -0.92950000
H        0.51950000      -0.40810000       0.84580000
H       -2.63300000       0.90430000      -1.18120000
H       -1.76080000      -0.27460000      -2.15740000
H       -4.48390000      -0.64600000      -0.98960000
H       -3.60010000      -1.76990000      -2.03150000
H       -3.71260000      -2.89310000       0.24870000
H       -1.27390000      -2.55420000      -0.91880000
H       -1.16920000      -2.56280000       0.86790000
H       -1.66260000      -0.30580000       2.17220000
H       -2.66200000       0.82750000       1.23430000
