25
Properties=species:S:1:pos:R:3 gdb_110900=T pbc="F F F"
C        1.22840000       0.13310000       1.25980000
C        0.27420000       0.35750000       0.08070000
C        0.79380000      -0.23460000      -1.23510000
C        0.83220000      -1.78240000      -1.30060000
C        1.14120000      -2.03110000      -2.80420000
C       -0.28070000      -1.43030000      -2.98650000
C       -0.63720000      -2.15310000      -1.65590000
C       -0.06650000       0.03510000      -2.53920000
C       -1.35570000       0.84370000      -2.38430000
H        1.37010000      -0.93200000       1.46910000
H        2.21590000       0.56260000       1.05530000
H        0.84550000       0.60040000       2.17260000
H       -0.70970000      -0.05970000       0.32660000
H        0.11930000       1.43570000      -0.04750000
H        1.80830000       0.15600000      -1.38790000
H        1.38040000      -2.30160000      -0.51370000
H        1.98660000      -1.49800000      -3.25150000
H        1.18900000      -3.09340000      -3.05630000
H       -0.86030000      -1.58390000      -3.89860000
H       -0.77180000      -3.22910000      -1.79080000
H       -1.44800000      -1.75780000      -1.03860000
H        0.55770000       0.54910000      -3.28000000
H       -2.06110000       0.38200000      -1.68700000
H       -1.15660000       1.85950000      -2.02830000
H       -1.86190000       0.93140000      -3.35210000
