19
Properties=species:S:1:pos:R:3 gdb_107547=T pbc="F F F"
O        0.07260000       1.36530000       0.33400000
C        0.04550000       0.05670000      -0.20930000
C       -1.31920000      -0.55870000      -0.11280000
C       -1.88790000      -1.04940000       1.19350000
C       -1.84180000      -1.99580000       0.02980000
C       -3.02380000      -1.69860000      -0.90600000
C       -2.46160000      -0.24600000      -1.08910000
C       -3.29890000       0.97170000      -0.80650000
O       -2.87430000       1.95060000      -0.23580000
H       -0.79480000       1.76570000       0.17390000
H        0.37730000       0.05930000      -1.26270000
H        0.77190000      -0.54310000       0.35310000
H       -1.14270000      -1.21180000       1.96540000
H       -2.84100000      -0.68500000       1.57050000
H       -1.28320000      -2.92350000       0.05090000
H       -3.01680000      -2.26880000      -1.83620000
H       -4.01510000      -1.78510000      -0.44850000
H       -2.08910000      -0.12620000      -2.11620000
H       -4.34830000       0.94880000      -1.17490000
