21
Properties=species:S:1:pos:R:3 gdb_100528=T pbc="F F F"
C       -0.11600000       1.55870000       0.06960000
C       -0.02460000       0.02560000      -0.04650000
O        0.63040000      -0.33820000      -1.23250000
C        0.71610000      -0.56820000       1.15470000
O        1.81800000      -1.05170000       0.97970000
C        0.04440000      -0.57150000       2.51550000
C       -0.72940000      -1.89700000       2.68790000
C        1.07820000      -0.37930000       3.62810000
O        0.37130000      -0.30350000       4.85650000
H        0.88540000       1.99360000       0.14450000
H       -0.58930000       1.94810000      -0.83490000
H       -0.70780000       1.87560000       0.93320000
H       -1.04690000      -0.38590000      -0.04970000
H        1.46670000      -0.73960000      -0.94480000
H       -0.67500000       0.25330000       2.56840000
H       -0.05050000      -2.75010000       2.59080000
H       -1.18060000      -1.92090000       3.68140000
H       -1.52110000      -2.00250000       1.94070000
H        1.78590000      -1.21880000       3.61190000
H        1.65450000       0.54020000       3.44260000
H        1.01290000      -0.28050000       5.57200000
