17
Properties=species:S:1:pos:R:3 gdb_43052=T pbc="F F F"
O       -0.00150000       0.04570000       0.12020000
C       -0.03290000       1.24230000       0.05690000
C       -1.22150000       2.21160000       0.02280000
O       -0.81840000       3.06990000       1.13860000
C        0.22940000       3.51390000       0.22740000
C       -0.70610000       3.29930000      -0.98580000
C        0.12050000       2.83250000      -2.18910000
C        1.46170000       2.35190000      -1.54590000
C        1.12040000       2.26840000      -0.04140000
H       -2.23820000       1.82670000       0.07280000
H        0.69570000       4.45900000       0.50270000
H       -1.44510000       4.08180000      -1.15510000
H       -0.37960000       2.03020000      -2.74050000
H        0.28280000       3.65060000      -2.89580000
H        1.80490000       1.39210000      -1.93940000
H        2.26000000       3.08210000      -1.71430000
H        1.95820000       2.08710000       0.62990000
