20
Properties=species:S:1:pos:R:3 gdb_98292=T pbc="F F F"
C       -0.12970000       1.51000000       0.01130000
N       -0.14300000       0.05820000      -0.04280000
C       -0.10490000      -0.70000000       1.18870000
C        0.40290000      -0.11780000       2.47860000
C       -1.06670000      -0.45190000       2.31960000
C       -0.07730000      -0.63370000      -1.21320000
O       -0.04280000      -1.85900000      -1.26660000
C       -0.03700000       0.14300000      -2.53990000
O        0.07120000      -0.75900000      -3.59830000
H        0.87460000       1.90720000       0.20500000
H       -0.49610000       1.93180000      -0.92340000
H       -0.79550000       1.86290000       0.80390000
H        0.14190000      -1.73000000       0.97360000
H        1.02410000      -0.74840000       3.10460000
H        0.66910000       0.93230000       2.51260000
H       -1.75850000       0.37980000       2.23990000
H       -1.47300000      -1.31560000       2.83350000
H       -0.95130000       0.75180000      -2.63570000
H        0.81310000       0.84310000      -2.53140000
H        0.06320000      -1.63210000      -3.16650000
