14
Properties=species:S:1:pos:R:3 gdb_27660=T pbc="F F F"
N        0.00850000       1.36250000      -0.01320000
C       -0.09740000      -0.02130000      -0.02160000
C       -1.15470000      -0.86110000      -0.01620000
C       -0.65380000      -2.22070000      -0.03040000
C       -1.38980000      -3.42290000      -0.03070000
C       -2.04100000      -4.43670000      -0.03070000
C        0.70870000      -2.07970000      -0.04370000
O        1.67190000      -3.00660000      -0.06000000
O        1.08520000      -0.79130000      -0.03900000
H        0.46980000       1.73260000      -0.83810000
H        0.48440000       1.72150000       0.80830000
H       -2.19100000      -0.56510000      -0.00360000
H       -2.60450000      -5.33570000      -0.03080000
H        2.52610000      -2.55790000      -0.06580000
