16
Properties=species:S:1:pos:R:3 gdb_15856=T pbc="F F F"
C       -0.44310000       1.40970000       0.20550000
C        0.03850000      -0.00340000      -0.07940000
C        1.00960000      -0.19820000      -1.28920000
C        2.04510000      -0.69010000      -0.28480000
N        3.22300000      -1.11880000      -0.37530000
N        1.14200000      -0.48500000       0.78880000
C        1.24970000      -0.74930000       2.12350000
O        2.25070000      -1.18510000       2.65020000
H        0.39520000       2.11310000       0.21220000
H       -1.15380000       1.72460000      -0.56530000
H       -0.95130000       1.47130000       1.17300000
H       -0.80090000      -0.70650000      -0.08780000
H        0.70270000      -0.94230000      -2.02560000
H        1.28470000       0.72660000      -1.80100000
H        3.58520000      -1.36330000       0.54810000
H        0.31810000      -0.52110000       2.67790000
