18
Properties=species:S:1:pos:R:3 gdb_9388=T pbc="F F F"
C       -0.11300000       1.51240000      -0.03630000
C       -0.02040000      -0.00260000       0.00750000
O       -1.33510000      -0.53470000       0.02060000
C       -1.37690000      -1.93940000       0.05920000
C       -2.86840000      -2.32810000       0.00160000
N       -3.58630000      -1.83770000      -1.17620000
C       -2.99910000      -3.78710000       0.10430000
N       -3.06180000      -4.93800000       0.17950000
H        0.88820000       1.95280000      -0.04500000
H       -0.64350000       1.84040000      -0.93480000
H       -0.65090000       1.89000000       0.83770000
H        0.53010000      -0.38630000      -0.86700000
H        0.52590000      -0.33380000       0.90520000
H       -0.84410000      -2.37960000      -0.80030000
H       -0.91250000      -2.33020000       0.97870000
H       -3.34910000      -1.88830000       0.88490000
H       -3.37860000      -0.84590000      -1.25880000
H       -3.21440000      -2.28310000      -2.01140000
