17
Properties=species:S:1:pos:R:3 gdb_87615=T pbc="F F F"
C       -0.13430000       1.46080000      -0.09290000
N        0.03660000       0.01860000       0.03280000
C        1.36380000      -0.50960000      -0.17740000
C        0.77960000      -0.47680000       1.20740000
C        1.27850000       0.33920000       2.34200000
C        1.09050000      -0.37330000       3.46240000
N        0.50640000      -1.61680000       3.18660000
C        0.26780000      -1.76910000       1.82930000
O       -0.21570000      -2.73180000       1.28300000
H        0.76530000       2.04630000       0.15290000
H       -0.41050000       1.68170000      -1.12840000
H       -0.95040000       1.78720000       0.55800000
H        1.41700000      -1.46920000      -0.68530000
H        2.17760000       0.18670000      -0.37900000
H        1.72100000       1.32000000       2.28120000
H        1.33310000      -0.11460000       4.48280000
H        0.25280000      -2.31250000       3.86720000
