19
Properties=species:S:1:pos:R:3 gdb_87372=T pbc="F F F"
C       -0.67920000       1.12580000      -0.03600000
C       -0.40530000      -0.32290000       0.28520000
N        0.90670000      -0.85390000      -0.12230000
C        0.58260000      -0.77470000       1.29440000
C        1.41390000      -0.08900000       2.40800000
C        0.91210000       1.20540000       3.02810000
N        1.13490000      -1.30650000       3.20280000
C        0.45230000      -1.97850000       2.21590000
O       -0.01100000      -3.08620000       2.12340000
H        0.23120000       1.72310000       0.05340000
H       -1.04330000       1.22150000      -1.06430000
H       -1.44100000       1.54140000       0.63160000
H       -1.25810000      -0.99170000       0.16950000
H        0.82950000      -1.82270000      -0.42860000
H        2.47010000      -0.00740000       2.12660000
H       -0.15810000       1.14500000       3.24620000
H        1.44100000       1.41410000       3.96420000
H        1.08620000       2.05020000       2.35550000
H        1.50400000      -1.62290000       4.08660000
