18
Properties=species:S:1:pos:R:3 gdb_83497=T pbc="F F F"
O       -0.05280000       1.42110000      -0.01800000
C        0.00280000       0.01430000       0.02460000
C        0.35370000      -0.59680000       1.40980000
C       -0.76310000      -0.00950000       2.30710000
C       -1.99650000      -0.03050000       1.35010000
C       -1.40670000      -0.59960000       0.01900000
C       -1.08250000      -2.06770000       0.32430000
O       -1.69230000      -3.06650000       0.02140000
N        0.05740000      -1.99720000       1.10550000
H        0.84780000       1.75950000      -0.03840000
H        0.64460000      -0.39550000      -0.76530000
H        1.37720000      -0.45880000       1.76250000
H       -0.90650000      -0.61360000       3.20610000
H       -0.51580000       1.00960000       2.61300000
H       -2.81520000      -0.65220000       1.71820000
H       -2.38120000       0.97640000       1.18260000
H       -2.02250000      -0.45910000      -0.86610000
H        0.31380000      -2.76640000       1.70620000
