16
Properties=species:S:1:pos:R:3 gdb_51985=T pbc="F F F"
N       -0.32020000       0.21850000      -1.74020000
C       -0.74900000       0.38700000      -0.55700000
N       -1.97180000      -0.14370000      -0.17150000
C       -2.49060000       0.01290000       1.09310000
O       -1.92700000       0.60400000       1.99100000
C       -3.86440000      -0.64900000       1.28860000
N       -4.92270000      -0.07190000       0.46950000
C       -5.12130000      -0.43780000      -0.81880000
O       -4.41190000      -1.22120000      -1.42540000
H        0.58690000       0.66870000      -1.85080000
H       -0.25900000       0.92500000       0.25720000
H       -2.51400000      -0.65640000      -0.86450000
H       -3.79130000      -1.71380000       1.04400000
H       -4.12490000      -0.53650000       2.34060000
H       -5.51830000       0.63310000       0.87300000
H       -6.00520000       0.04710000      -1.27050000
