13
Properties=species:S:1:pos:R:3 gdb_131925=T pbc="F F F"
N       -0.03760000       0.99800000       0.15960000
H       -0.14190000      -0.00770000       0.11880000
H        0.64720000       1.31480000      -0.51520000
C       -1.27280000       1.61490000       0.06360000
N       -1.40160000       2.98290000       0.02210000
C       -2.74810000       3.27020000       0.01540000
C       -3.34430000       2.04130000       0.05860000
N       -2.43820000       1.01580000       0.08040000
N       -4.76760000       1.81890000       0.06860000
O       -5.47530000       2.82600000       0.02170000
O       -5.17300000       0.66850000       0.12240000
H       -0.65330000       3.65500000       0.07050000
H       -3.14600000       4.26770000      -0.02410000
