13
Properties=species:S:1:pos:R:3 gdb_2616=T pbc="F F F"
N       -0.05400000      -1.17660000      -0.00410000
C       -0.04380000      -0.02140000       0.00240000
C       -0.01040000       1.43900000       0.01020000
C        1.42830000       1.99000000      -0.00110000
C        1.42620000       3.53060000       0.00740000
C        2.77730000       4.08600000      -0.00270000
N        3.85170000       4.51020000      -0.01130000
H       -0.56580000       1.80420000      -0.86190000
H       -0.54820000       1.79430000       0.89730000
H        1.97350000       1.61680000       0.87010000
H        1.95610000       1.62640000      -0.88700000
H        0.88500000       3.91640000      -0.86480000
H        0.90240000       3.90670000       0.89430000
