20
Properties=species:S:1:pos:R:3 gdb_38360=T pbc="F F F"
C       -0.12560000       1.56410000       0.11730000
C        1.43490000       1.63840000       0.02600000
C        1.45290000       0.12360000       0.43280000
C       -0.06680000       0.00300000       0.09280000
C       -0.32980000      -0.56610000      -1.32820000
N        0.45300000       0.31120000      -2.15410000
C        1.67510000       0.08760000      -2.35560000
O        2.57160000       1.07680000      -2.21220000
C        2.08760000       2.11360000      -1.31160000
H       -0.47630000       1.93900000       1.08370000
H       -0.69200000       2.04430000      -0.68210000
H        1.86840000       2.28070000       0.79920000
H        2.14870000      -0.54610000      -0.08020000
H        1.62740000       0.01900000       1.50680000
H       -0.67950000      -0.52090000       0.83300000
H       -0.03820000      -1.63080000      -1.37480000
H       -1.39450000      -0.48820000      -1.57440000
H        2.16580000      -0.87670000      -2.55410000
H        1.38530000       2.75950000      -1.84640000
H        2.99620000       2.68430000      -1.10440000
