11
Properties=species:S:1:pos:R:3 gdb_23676=T pbc="F F F"
F        0.03120000       0.05900000       0.00300000
C       -0.01460000       1.38470000       0.01060000
C       -1.25320000       2.01410000       0.03080000
C       -1.24450000       3.40520000       0.03800000
C       -0.03410000       4.09090000       0.02510000
C        1.11920000       3.31630000       0.00530000
F        2.29890000       3.92240000      -0.00760000
N        1.15030000       1.99940000      -0.00210000
H       -2.16510000       1.43240000       0.04020000
H       -2.17950000       3.95410000       0.05370000
H        0.02920000       5.17070000       0.02990000
