15
Properties=species:S:1:pos:R:3 gdb_9219=T pbc="F F F"
C        0.29290000       1.20490000      -0.11090000
O       -0.11410000      -0.17190000      -0.16770000
C        0.46870000      -0.90660000      -1.12810000
O        1.26990000      -0.49350000      -1.92340000
C       -0.00740000      -2.35370000      -1.03240000
O        0.24320000      -3.08320000      -2.20880000
C        1.53310000      -3.41610000      -2.45930000
N        1.81500000      -4.04370000      -3.51390000
H        1.36870000       1.27920000       0.06530000
H        0.05160000       1.71250000      -1.04760000
H       -0.26290000       1.64330000       0.71730000
H        0.46830000      -2.81210000      -0.15290000
H       -1.08620000      -2.37440000      -0.86790000
H        2.22870000      -3.10270000      -1.67160000
H        2.81430000      -4.23250000      -3.54900000
