18
Properties=species:S:1:pos:R:3 gdb_47462=T pbc="F F F"
O       -0.07850000       0.01720000      -0.45850000
C       -0.09010000       1.18750000      -0.13900000
C       -1.30840000       2.05860000       0.16480000
C       -0.75980000       3.49410000       0.18280000
C        0.73830000       3.31820000       0.51380000
N        1.02370000       1.97480000       0.03580000
C        2.35970000       1.41210000       0.00080000
C        3.02180000       1.41210000       1.30680000
C        3.56160000       1.43440000       2.38010000
H       -2.09800000       1.88450000      -0.56790000
H       -1.69750000       1.75160000       1.14260000
H       -0.86480000       3.94680000      -0.80740000
H       -1.26290000       4.14470000       0.90030000
H        1.36980000       4.05520000       0.00490000
H        0.93850000       3.40090000       1.59110000
H        2.24270000       0.38800000      -0.37040000
H        2.97940000       1.96080000      -0.72180000
H        4.04270000       1.43620000       3.32680000
