18
Properties=species:S:1:pos:R:3 gdb_32100=T pbc="F F F"
C        0.16950000       1.53300000       0.14690000
C       -0.01590000       0.01890000      -0.04080000
C        0.71050000      -0.49810000      -1.26070000
N        0.23950000      -0.08990000      -2.44810000
C        0.87350000      -0.51900000      -3.54200000
C        1.98150000      -1.35540000      -3.53530000
C        2.46600000      -1.77650000      -2.29820000
O        3.54640000      -2.59410000      -2.27460000
C        1.81750000      -1.33870000      -1.14330000
H        1.22180000       1.78350000       0.31680000
H       -0.16510000       2.06500000      -0.74720000
H       -0.40810000       1.89340000       1.00360000
H        0.32630000      -0.51730000       0.85090000
H       -1.08320000      -0.19830000      -0.16150000
H        0.46970000      -0.17500000      -4.49180000
H        2.46080000      -1.67820000      -4.45120000
H        3.76730000      -2.80200000      -1.35990000
H        2.16870000      -1.64930000      -0.16280000
