19
Properties=species:S:1:pos:R:3 gdb_45251=T pbc="F F F"
O        0.13010000       0.27460000      -1.11030000
C        0.07440000       1.21450000      -0.37260000
C       -1.05140000       1.83310000       0.47900000
C       -0.11290000       3.05140000       0.75750000
C        0.34460000       3.35500000       2.20180000
C        1.65070000       2.59640000       2.41930000
C        1.64280000       1.09900000       2.26600000
C        2.08760000       1.96520000       1.10830000
C        1.07210000       2.32260000       0.02660000
H       -1.96880000       2.04040000      -0.07960000
H       -1.31930000       1.23710000       1.35800000
H       -0.46580000       3.94980000       0.24890000
H        0.53040000       4.42860000       2.31310000
H       -0.42400000       3.09040000       2.93760000
H        2.38290000       3.03180000       3.09100000
H        2.41760000       0.54080000       2.78050000
H        0.69630000       0.57150000       2.21530000
H        3.13190000       1.92290000       0.82290000
H        1.54850000       2.83020000      -0.81600000
