15
Properties=species:S:1:pos:R:3 gdb_54470=T pbc="F F F"
N        0.06670000       1.25160000      -0.25210000
C        0.01340000      -0.05600000       0.14280000
O        0.98530000      -0.66290000       0.56230000
C       -1.30330000      -0.72030000      -0.00960000
N       -1.61390000      -1.89900000       0.83440000
C       -1.50560000      -2.07900000      -0.60750000
C       -2.83050000      -1.57020000      -1.28080000
O       -3.70750000      -1.07440000      -0.26950000
C       -2.63740000      -0.24270000      -0.70180000
H        0.91820000       1.75140000      -0.04930000
H       -0.77410000       1.79300000      -0.36130000
H       -0.70690000      -2.16610000       1.22670000
H       -0.75410000      -2.70610000      -1.06860000
H       -3.25610000      -1.89230000      -2.22260000
H       -2.87370000       0.74570000      -1.07930000
