20
Properties=species:S:1:pos:R:3 gdb_86827=T pbc="F F F"
N        0.61050000       0.77290000       1.49110000
H        0.26950000      -0.25280000       2.86360000
H        1.42130000       1.36990000       1.63030000
H        0.76060000       0.25250000       0.63090000
C       -0.62190000       1.56340000       1.42200000
C       -1.86710000       0.63580000       1.48190000
C       -2.12770000       1.08310000       2.95470000
C       -2.07800000       0.04770000       4.07960000
C       -0.89690000      -0.90440000       4.36310000
O        0.21060000      -0.89550000       3.62130000
O       -1.00060000      -1.67120000       5.28860000
C       -0.98110000       2.13420000       2.82190000
H       -0.61800000       2.29330000       0.60320000
H       -2.66380000       0.92220000       0.79220000
H       -1.64570000      -0.42490000       1.33310000
H       -3.10080000       1.57330000       3.05000000
H       -2.24040000       0.56230000       5.03440000
H       -2.94060000      -0.62160000       3.97570000
H       -0.17490000       2.06240000       3.55750000
H       -1.33680000       3.16640000       2.79920000
