19
Properties=species:S:1:pos:R:3 gdb_60499=T pbc="F F F"
C        0.65430000       1.91820000      -0.22410000
C        0.16010000       0.48970000       0.02150000
C        0.54840000      -0.44980000      -1.11730000
C       -0.25550000      -1.68610000      -1.43170000
C       -0.28920000      -0.50770000      -2.37110000
C        0.73110000      -0.07240000       1.32430000
O        1.75630000       0.33410000       1.82730000
C       -0.02090000      -1.16100000       1.93250000
C       -0.66030000      -2.03790000       2.45430000
H        1.74590000       1.94510000      -0.26540000
H        0.25810000       2.29400000      -1.17120000
H        0.33820000       2.59080000       0.57830000
H       -0.93410000       0.47650000       0.10790000
H        1.62350000      -0.52900000      -1.25830000
H        0.27700000      -2.57930000      -1.73820000
H       -1.13720000      -1.88120000      -0.83160000
H       -1.19520000       0.08920000      -2.40190000
H        0.22110000      -0.58750000      -3.32450000
H       -1.21140000      -2.81580000       2.92440000
