15
Properties=species:S:1:pos:R:3 gdb_133118=T pbc="F F F"
C        0.08820000       1.38440000       0.00700000
O        0.00010000      -0.03010000       0.00310000
C       -1.23460000      -0.58130000       0.01050000
C       -2.44640000       0.09770000       0.02210000
C       -3.63670000      -0.63800000       0.02860000
C       -3.57130000      -2.01910000       0.02340000
N       -2.40470000      -2.68630000       0.01220000
C       -1.30410000      -1.99040000       0.00620000
F       -0.15540000      -2.65960000      -0.00480000
H        1.15290000       1.62000000      -0.00040000
H       -0.38590000       1.81940000      -0.88200000
H       -0.37220000       1.81360000       0.90600000
H       -2.47390000       1.17990000       0.02600000
H       -4.59440000      -0.13080000       0.03760000
H       -4.47020000      -2.62740000       0.02810000
