19
Properties=species:S:1:pos:R:3 gdb_82808=T pbc="F F F"
O        0.00560000       1.41800000      -0.13160000
C       -0.01700000       0.02360000      -0.02250000
C       -0.43060000      -0.69340000       1.24060000
C       -1.05880000       0.02300000       2.44110000
C       -2.54080000       0.35900000       2.18210000
C       -2.73380000       1.21500000       0.91880000
C       -2.69990000      -0.17280000       0.24490000
O       -3.17530000      -0.76210000       1.50260000
C       -1.31260000      -0.74700000      -0.00450000
H        0.75410000       1.73760000       0.38390000
H        0.77900000      -0.46160000      -0.58920000
H        0.14570000      -1.57900000       1.48800000
H       -0.99830000      -0.64270000       3.30750000
H       -0.51730000       0.94080000       2.70650000
H       -3.06450000       0.63470000       3.10160000
H       -3.74250000       1.63000000       0.87830000
H       -1.98610000       1.95450000       0.65020000
H       -3.38620000      -0.37120000      -0.58130000
H       -1.31580000      -1.66590000      -0.58300000
