15
Properties=species:S:1:pos:R:3 gdb_4504=T pbc="F F F"
C       -0.10750000       1.46880000       0.01000000
C       -0.02710000      -0.01990000      -0.03120000
N       -0.08370000      -0.77430000      -1.10210000
C        0.03110000      -2.08260000      -0.66210000
N        0.02390000      -3.25670000      -1.45650000
C        0.15790000      -2.09740000       0.69770000
O        0.29710000      -3.10560000       1.58360000
N        0.12190000      -0.78990000       1.10670000
H        0.79570000       1.91970000       0.43910000
H       -0.22220000       1.83570000      -1.01080000
H       -0.96230000       1.82020000       0.60080000
H        0.77670000      -3.23760000      -2.13960000
H       -0.83870000      -3.32900000      -1.98980000
H        0.29320000      -3.91230000       1.04890000
H        0.19220000      -0.47230000       2.05880000
