18
Properties=species:S:1:pos:R:3 gdb_44232=T pbc="F F F"
O       -0.02350000       0.05780000      -0.11680000
C        0.00460000       1.25240000       0.00150000
N       -0.99720000       2.20700000       0.07870000
C       -0.09110000       3.36100000       0.04680000
C        1.09780000       2.34010000       0.05740000
C        1.51730000       2.82130000      -1.36940000
C        0.35140000       3.82630000      -1.34810000
C       -0.53130000       4.26610000      -2.47740000
C        0.40200000       5.25210000      -1.81380000
H       -1.95220000       2.13190000      -0.24670000
H       -0.27350000       4.10970000       0.81950000
H        1.85190000       2.28110000       0.83840000
H        2.50060000       3.29800000      -1.38430000
H        1.49160000       2.04760000      -2.14100000
H       -0.28510000       3.92030000      -3.47610000
H       -1.59680000       4.36460000      -2.29240000
H       -0.03160000       6.01390000      -1.17310000
H        1.27990000       5.57850000      -2.36220000
