20
Properties=species:S:1:pos:R:3 gdb_106706=T pbc="F F F"
C       -0.31700000       1.45240000      -0.00120000
C        0.20010000       0.00850000      -0.06460000
C        0.86780000      -0.45080000       1.20170000
C        0.10870000      -0.94970000       2.42310000
C        1.03220000      -1.90260000       1.73200000
O        0.54640000      -3.07720000       1.19590000
C        2.47030000      -1.61320000       2.07040000
N        3.13470000      -1.18350000       0.80450000
C        2.31310000      -0.21420000       1.57910000
H        0.49850000       2.15720000       0.19410000
H       -0.78960000       1.74420000      -0.94450000
H       -1.05600000       1.57140000       0.79800000
H       -0.63220000      -0.67030000      -0.29030000
H        0.91450000      -0.09370000      -0.89080000
H        0.32610000      -0.57560000       3.42050000
H       -0.94310000      -1.15220000       2.24260000
H        1.10630000      -3.29340000       0.43990000
H        3.05530000      -1.97840000       2.90710000
H        4.11370000      -0.99820000       1.03150000
H        2.76270000       0.67750000       2.00130000
