17
Properties=species:S:1:pos:R:3 gdb_35571=T pbc="F F F"
C       -0.10620000      -1.21000000       0.16080000
C       -0.03100000      -0.01220000       0.09020000
C        0.04720000       1.43360000      -0.01990000
O       -0.32430000       2.14270000       1.19120000
C        0.84140000       2.99950000       1.09500000
C        1.82970000       2.87200000       2.26540000
O        3.00570000       2.29080000       1.71780000
C        2.61090000       1.42620000       0.65850000
C        1.43580000       2.13610000      -0.03650000
H       -0.17340000      -2.26800000       0.22860000
H       -0.58110000       1.76770000      -0.85680000
H        0.55660000       4.03010000       0.86210000
H        2.11160000       3.83070000       2.70910000
H        1.37830000       2.23330000       3.03940000
H        3.47810000       1.28400000       0.00960000
H        2.29790000       0.44540000       1.04470000
H        1.71000000       2.61980000      -0.97290000
