21
Properties=species:S:1:pos:R:3 gdb_73860=T pbc="F F F"
C       -0.01410000       1.52160000       0.11700000
C        0.02540000       0.02960000      -0.00110000
C        0.01320000      -0.72280000      -1.11030000
C       -0.04340000      -0.28050000      -2.53950000
C        0.00040000      -2.20090000      -0.77940000
C        0.39520000      -2.24030000       0.72480000
C        0.02270000      -0.82420000       1.25000000
C       -0.18630000      -3.34130000       1.47800000
C       -0.67930000      -4.24670000       2.09750000
H        0.85330000       1.89540000       0.67620000
H       -0.02740000       2.02120000      -0.85460000
H       -0.90310000       1.84750000       0.67300000
H       -0.04560000       0.80700000      -2.64440000
H        0.81070000      -0.67200000      -3.10700000
H       -0.94480000      -0.66610000      -3.03400000
H       -0.99920000      -2.62940000      -0.93710000
H        0.68930000      -2.78820000      -1.39740000
H        1.48780000      -2.32690000       0.77150000
H        0.72680000      -0.47430000       2.01370000
H       -0.97000000      -0.82600000       1.72140000
H       -1.10900000      -5.04770000       2.64580000
