16
Properties=species:S:1:pos:R:3 gdb_95617=T pbc="F F F"
O        0.05400000       1.40130000       0.13020000
C        0.00320000       0.01250000       0.01580000
C       -1.45230000      -0.53510000       0.00060000
N       -1.50390000      -1.97980000      -0.16210000
C       -0.90330000      -2.44520000      -1.41090000
C        0.53600000      -1.95260000      -1.59980000
O        1.45340000      -2.63520000      -1.97860000
C        0.71660000      -0.46560000      -1.23650000
O        1.32540000       0.30400000      -1.94520000
H        0.61190000       1.70690000      -0.60320000
H        0.51330000      -0.47030000       0.87190000
H       -1.94680000      -0.24890000       0.93240000
H       -2.00150000      -0.05940000      -0.82060000
H       -1.07370000      -2.44580000       0.63020000
H       -0.91210000      -3.53680000      -1.46250000
H       -1.50640000      -2.06780000      -2.24960000
