21
Properties=species:S:1:pos:R:3 gdb_94453=T pbc="F F F"
O        0.49730000       0.85750000      -0.72050000
C        0.13660000      -0.22210000       0.10120000
C        0.00140000      -0.03130000       1.62980000
C       -1.16100000      -1.05710000       1.60040000
C       -1.32130000      -0.81000000       0.06040000
C       -2.42240000       0.20610000      -0.34260000
C       -3.52900000      -0.62060000      -1.04800000
C       -2.81440000      -1.89920000      -1.41260000
C       -1.62740000      -1.99080000      -0.81530000
H       -0.00940000       1.62780000      -0.44320000
H        0.85470000      -1.01620000      -0.12960000
H        0.87260000      -0.24070000       2.25460000
H       -0.36130000       0.97600000       1.86580000
H       -0.81760000      -2.07360000       1.81230000
H       -2.03550000      -0.85040000       2.22190000
H       -2.80200000       0.78610000       0.50370000
H       -1.99660000       0.91200000      -1.06470000
H       -4.37790000      -0.82690000      -0.38120000
H       -3.94560000      -0.10000000      -1.91780000
H       -3.25260000      -2.65230000      -2.05860000
H       -0.94610000      -2.83240000      -0.89540000
