21
Properties=species:S:1:pos:R:3 gdb_114057=T pbc="F F F"
C       -0.03280000       1.56190000       0.01090000
C       -0.03950000       0.06240000       0.07080000
C        1.15600000      -0.78090000      -0.33530000
C        0.60870000      -0.90070000       1.05940000
O        1.35740000      -0.58240000       2.18440000
C       -0.64190000      -1.79070000       1.08410000
C       -1.35950000      -1.78650000       2.42130000
O       -2.61830000      -2.42140000       2.23990000
C       -1.28910000      -0.83170000       0.02730000
H        0.93750000       1.96170000       0.32250000
H       -0.23280000       1.92330000      -1.00500000
H       -0.79690000       1.98840000       0.67080000
H        1.05790000      -1.59000000      -1.05740000
H        2.08970000      -0.22870000      -0.39610000
H        2.10830000      -1.18430000       2.23110000
H       -0.49740000      -2.82750000       0.75680000
H       -0.74910000      -2.31210000       3.17170000
H       -1.47860000      -0.74880000       2.77230000
H       -3.08830000      -2.39710000       3.07830000
H       -2.18800000      -0.34910000       0.41900000
H       -1.52500000      -1.27350000      -0.94590000
