23
Properties=species:S:1:pos:R:3 gdb_112806=T pbc="F F F"
C       -0.15190000       1.81890000       0.09220000
C       -0.02170000       0.30410000       0.29100000
C       -1.35260000      -0.43160000       0.14400000
C       -1.94600000      -0.75350000      -1.26280000
C       -1.11480000      -0.54290000      -2.51540000
O       -2.06100000      -2.16160000      -0.92280000
C       -1.42790000      -1.96370000       0.36770000
C       -0.15480000      -2.79690000       0.43580000
O       -0.46500000      -4.15440000       0.18540000
H        0.81290000       2.31840000       0.22180000
H       -0.51940000       2.06440000      -0.90960000
H       -0.85220000       2.25170000       0.81510000
H        0.72290000      -0.09390000      -0.40650000
H        0.37340000       0.10930000       1.29640000
H       -2.09780000       0.07940000       0.76160000
H       -2.94540000      -0.32580000      -1.41580000
H       -0.10050000      -0.93560000      -2.40440000
H       -1.58700000      -1.06500000      -3.35380000
H       -1.05340000       0.51980000      -2.77220000
H       -2.10130000      -2.28050000       1.17430000
H        0.58840000      -2.42050000      -0.28410000
H        0.29010000      -2.74460000       1.43580000
H       -0.99520000      -4.15110000      -0.62200000
