18
Properties=species:S:1:pos:R:3 gdb_11457=T pbc="F F F"
C        0.03840000       1.29260000      -0.24900000
O       -0.05240000      -0.11130000      -0.09260000
C       -1.35600000      -0.56020000       0.17840000
O       -2.23210000      -0.38810000      -0.92790000
C       -2.51100000      -1.65080000      -1.52060000
C       -1.95250000      -2.67860000      -0.56870000
C       -2.11670000      -4.14560000      -0.79570000
C       -1.32030000      -2.04330000       0.41410000
H        1.09410000       1.53190000      -0.39540000
H       -0.53600000       1.63880000      -1.11680000
H       -0.32610000       1.82100000       0.64580000
H       -1.76890000       0.03490000       1.01060000
H       -3.59830000      -1.74570000      -1.65290000
H       -2.05210000      -1.73160000      -2.51910000
H       -1.68340000      -4.44480000      -1.75820000
H       -1.63260000      -4.72990000      -0.00950000
H       -3.17650000      -4.42700000      -0.82860000
H       -0.78850000      -2.48650000       1.24540000
