16
Properties=species:S:1:pos:R:3 gdb_24054=T pbc="F F F"
C        0.05270000      -1.22560000      -0.00840000
C        0.08360000      -0.04650000       0.22220000
C        0.14290000       1.38650000       0.47960000
C        1.16260000       2.09590000      -0.43160000
C        1.21880000       3.56160000      -0.16350000
N        0.54390000       4.25520000       0.69840000
C        0.98850000       5.56180000       0.52410000
C        1.92330000       5.58240000      -0.45100000
O        2.08410000       4.30160000      -0.90510000
H        0.01330000      -2.26920000      -0.19980000
H       -0.84450000       1.83880000       0.33690000
H        0.40380000       1.57330000       1.52700000
H        2.15820000       1.65980000      -0.29020000
H        0.90640000       1.92600000      -1.48380000
H        0.60080000       6.37790000       1.11240000
H        2.52950000       6.33930000      -0.91730000
