17
Properties=species:S:1:pos:R:3 gdb_95444=T pbc="F F F"
N       -0.02940000       1.36010000       0.01710000
C        0.07850000      -0.01170000      -0.01360000
O        1.15720000      -0.58510000      -0.06550000
C       -1.21080000      -0.72080000       0.00270000
C       -1.33490000      -2.06460000       0.03130000
N       -2.63140000      -2.50190000      -0.07740000
C       -3.53080000      -1.34460000       0.04540000
C       -2.59020000      -0.10350000      -0.06660000
O       -2.84250000       0.89030000       0.93500000
H        0.83050000       1.86650000       0.15680000
H       -0.88660000       1.77340000       0.35540000
H       -0.52090000      -2.77630000       0.08340000
H       -2.89320000      -3.37510000       0.35440000
H       -4.29980000      -1.36280000      -0.73100000
H       -4.03440000      -1.32430000       1.02120000
H       -2.76190000       0.43470000      -1.00490000
H       -2.55800000       0.51620000       1.77830000
