18
Properties=species:S:1:pos:R:3 gdb_13464=T pbc="F F F"
O        0.06970000       1.34810000       0.07110000
C       -0.05620000      -0.05820000       0.21370000
C       -1.41170000      -0.58120000      -0.27500000
C       -1.50060000      -2.08920000      -0.18250000
C       -1.86530000      -2.75620000       1.13450000
O       -2.20910000      -1.96010000       2.22650000
C       -2.83240000      -2.80370000      -0.01710000
O       -4.00160000      -2.06200000       0.21200000
H       -0.53880000       1.75930000       0.69300000
H        0.75120000      -0.49000000      -0.38840000
H        0.10130000      -0.37750000       1.25380000
H       -2.20010000      -0.12580000       0.33420000
H       -1.56590000      -0.24530000      -1.30820000
H       -0.77750000      -2.62680000      -0.79230000
H       -1.34360000      -3.66400000       1.42400000
H       -3.13280000      -1.70620000       2.09220000
H       -2.99380000      -3.73970000      -0.54850000
H       -4.16300000      -1.48850000      -0.54410000
