21
Properties=species:S:1:pos:R:3 gdb_105410=T pbc="F F F"
C       -0.43350000       1.71150000       0.55100000
C       -0.11370000       0.27050000       0.14280000
C        0.83460000      -0.45690000       1.09930000
C        0.22200000      -0.81850000       2.47350000
C       -0.01620000      -2.26260000       1.95350000
C        0.99030000      -1.97870000       0.80580000
O        2.05410000       0.30280000       1.25920000
C        2.96900000       0.24800000       0.27790000
O        3.98650000       0.87690000       0.30660000
H        0.47480000       2.31680000       0.60400000
H       -1.11030000       2.17390000      -0.17310000
H       -0.91780000       1.75280000       1.53160000
H       -1.03830000      -0.31570000       0.07290000
H        0.32800000       0.25790000      -0.86260000
H        0.99050000      -0.78180000       3.24840000
H       -0.64380000      -0.24030000       2.80280000
H        0.23180000      -3.07900000       2.63330000
H       -1.03460000      -2.41510000       1.58840000
H        0.73490000      -2.32160000      -0.20010000
H        1.99520000      -2.32750000       1.05690000
H        2.69280000      -0.43880000      -0.54390000
