17
Properties=species:S:1:pos:R:3 gdb_32821=T pbc="F F F"
C        0.46780000       1.38710000       0.03320000
O        0.62940000      -0.01280000       0.03600000
C        0.15240000      -0.62300000      -1.15430000
C        0.45370000      -2.08280000      -1.09680000
C        1.38890000      -2.73930000      -0.35440000
N        2.39000000      -2.34170000       0.50970000
O        1.29890000      -4.06910000      -0.63780000
C        0.29360000      -4.15130000      -1.55990000
N       -0.23490000      -3.01870000      -1.86740000
H        1.01700000       1.85850000      -0.79640000
H       -0.59240000       1.67020000      -0.05080000
H        0.86080000       1.76510000       0.97990000
H       -0.93360000      -0.47230000      -1.26120000
H        0.62710000      -0.14530000      -2.03030000
H        2.21820000      -1.39270000       0.82000000
H        2.52070000      -2.97420000       1.28950000
H        0.04800000      -5.13800000      -1.91650000
