17
Properties=species:S:1:pos:R:3 gdb_51894=T pbc="F F F"
O       -0.01740000       0.01650000      -0.00940000
C        0.00260000       1.20470000       0.06990000
O        1.13590000       1.92520000      -0.12680000
C        1.00700000       3.32560000      -0.07070000
C        2.39990000       3.92240000       0.10940000
O        2.32940000       5.33420000       0.03240000
C        1.77030000       5.75700000      -1.20320000
C        0.37670000       5.16680000      -1.37720000
O        0.43360000       3.74430000      -1.28670000
H       -0.86850000       1.83820000       0.31760000
H        0.35410000       3.62250000       0.76980000
H        2.80530000       3.66920000       1.09180000
H        3.05590000       3.50740000      -0.67090000
H        1.73270000       6.84960000      -1.17520000
H        2.41300000       5.44370000      -2.04110000
H       -0.29650000       5.56920000      -0.60400000
H       -0.03850000       5.39790000      -2.36150000
