23
Properties=species:S:1:pos:R:3 gdb_115596=T pbc="F F F"
C        0.30190000       1.63540000       0.13850000
C        0.10730000       0.11510000       0.15320000
C        0.47790000      -0.53070000      -1.17860000
C        1.98610000      -0.66230000      -1.48580000
O        1.92250000      -2.10460000      -1.46990000
C        0.46770000      -2.08420000      -1.30120000
C        0.04400000      -2.92880000      -0.11180000
C       -0.14470000      -2.59880000      -2.60970000
O        0.37430000      -3.87220000      -2.93380000
H        1.34300000       1.90330000      -0.07360000
H       -0.32290000       2.10680000      -0.62820000
H        0.03750000       2.07750000       1.10360000
H        0.71000000      -0.32210000       0.95820000
H       -0.93850000      -0.11590000       0.39170000
H       -0.08900000      -0.04900000      -1.98290000
H        2.31390000      -0.27510000      -2.45820000
H        2.66220000      -0.28220000      -0.70940000
H        0.61180000      -2.67090000       0.78460000
H       -1.02280000      -2.79460000       0.09710000
H        0.21380000      -3.98390000      -0.34270000
H       -1.23170000      -2.70280000      -2.51570000
H        0.05550000      -1.87110000      -3.41320000
H        1.33400000      -3.77490000      -2.87020000
