16
Properties=species:S:1:pos:R:3 gdb_46774=T pbc="F F F"
O        0.26660000       0.20060000       0.61550000
C        0.12480000       1.30490000       0.17010000
O       -1.05480000       1.98630000       0.22640000
C       -0.88580000       3.33260000      -0.22430000
C        0.61740000       3.46900000      -0.56720000
C        1.53630000       4.21070000       0.38120000
C        2.55250000       3.43090000       0.74480000
C        2.44000000       2.05780000       0.11730000
N        1.08940000       2.08230000      -0.46640000
H       -1.51950000       3.49050000      -1.10140000
H       -1.20480000       4.01250000       0.57130000
H        0.73120000       3.86090000      -1.58700000
H        1.39030000       5.24980000       0.64930000
H        3.38680000       3.71760000       1.37270000
H        3.20460000       1.90560000      -0.65610000
H        2.51200000       1.22520000       0.82310000
