21
Properties=species:S:1:pos:R:3 gdb_60111=T pbc="F F F"
C       -0.05980000       1.63380000       0.26510000
C       -0.09250000       0.11080000       0.30220000
O        0.07940000      -0.27790000       1.65470000
C       -1.41190000      -0.45340000      -0.26440000
C       -1.37590000      -1.94340000      -0.43330000
C       -0.91440000      -2.78170000      -1.64240000
C       -1.87040000      -3.92780000      -1.15590000
C       -2.25930000      -3.03290000       0.02620000
O       -1.04420000      -2.73880000       0.73410000
H        0.85700000       1.99660000       0.73740000
H       -0.09230000       2.00380000      -0.76430000
H       -0.91130000       2.04700000       0.81550000
H        0.74040000      -0.27420000      -0.31370000
H       -0.16480000      -1.20990000       1.72270000
H       -2.21920000      -0.17320000       0.42250000
H       -1.62880000       0.00450000      -1.23660000
H       -1.22430000      -2.35750000      -2.60050000
H        0.15390000      -3.00680000      -1.67060000
H       -2.69580000      -4.10680000      -1.84870000
H       -1.40780000      -4.87880000      -0.88320000
H       -3.17830000      -3.00760000       0.60160000
