13
Properties=species:S:1:pos:R:3 gdb_10447=T pbc="F F F"
N       -0.18040000      -1.05170000       0.53780000
C       -0.07390000       0.03220000       0.15400000
C        0.05210000       1.41560000      -0.30890000
C        1.45790000       1.98560000      -0.11090000
C        1.59250000       3.40710000       0.33660000
N        1.93470000       2.31110000       1.24170000
C        2.46090000       1.42730000      -0.99690000
N        3.23410000       0.99580000      -1.73900000
H       -0.22540000       1.46410000      -1.36740000
H       -0.66740000       2.03310000       0.23990000
H        2.43580000       3.99490000      -0.01060000
H        0.67090000       3.96370000       0.48740000
H        1.19830000       2.13670000       1.92210000
