16
Properties=species:S:1:pos:R:3 gdb_47352=T pbc="F F F"
N       -0.15080000       1.28960000      -0.40000000
C       -0.05390000       0.08600000      -0.03240000
C       -1.28760000      -0.78980000       0.05930000
O       -1.17950000      -1.84080000       1.00140000
C        0.00070000      -2.57890000       0.79280000
C        1.22090000      -1.68310000       1.02490000
O        1.15790000      -0.51770000       0.16990000
C        1.35940000      -1.28210000       2.42360000
C        1.48270000      -0.96380000       3.57490000
H        0.77570000       1.71590000      -0.47110000
H       -2.13830000      -0.17180000       0.34460000
H       -1.47990000      -1.20200000      -0.94640000
H        0.00150000      -3.40880000       1.50290000
H        0.04180000      -2.98140000      -0.23280000
H        2.12590000      -2.20940000       0.70250000
H        1.58720000      -0.67790000       4.59270000
