16
Properties=species:S:1:pos:R:3 gdb_25021=T pbc="F F F"
N       -0.17640000       1.22580000      -0.19570000
C       -0.03100000      -0.01710000      -0.08440000
O        1.10970000      -0.72520000       0.18990000
C        0.75170000      -2.06760000       0.20760000
C       -0.55150000      -2.17770000      -0.04470000
O       -1.06220000      -0.90030000      -0.23120000
C       -1.47420000      -3.30430000      -0.15370000
C       -2.91030000      -3.16980000       0.31840000
C       -2.61810000      -3.26700000      -1.15040000
H        0.71030000       1.70120000      -0.05050000
H        1.52810000      -2.78270000       0.40970000
H       -0.99160000      -4.26220000       0.00560000
H       -3.34770000      -4.02410000       0.82210000
H       -3.21250000      -2.20530000       0.70880000
H       -2.72430000      -2.36780000      -1.74540000
H       -2.85200000      -4.18900000      -1.67010000
