18
Properties=species:S:1:pos:R:3 gdb_83672=T pbc="F F F"
C        0.01190000       1.57160000       0.11260000
N       -0.01800000       0.12610000       0.12500000
C       -1.05390000      -0.56510000       0.92360000
C       -1.57370000      -1.82410000       0.21030000
O       -0.43710000      -2.59360000       0.69090000
C        0.02190000      -1.51040000       1.50430000
C        1.08190000      -0.57580000       0.84670000
C        2.14110000      -1.14140000       0.03290000
C        3.03030000      -1.60890000      -0.62680000
H        0.87790000       1.91120000      -0.46450000
H       -0.88800000       1.95650000      -0.37800000
H        0.07510000       2.02400000       1.12100000
H       -1.73450000       0.06480000       1.50010000
H       -2.51420000      -2.23080000       0.60380000
H       -1.60700000      -1.76480000      -0.88150000
H        0.17690000      -1.79120000       2.54750000
H        1.51700000       0.06260000       1.63590000
H        3.80550000      -2.03220000      -1.21620000
