18
Properties=species:S:1:pos:R:3 gdb_108415=T pbc="F F F"
O        0.02260000       1.35900000      -0.41350000
C       -0.08250000       0.06510000       0.16150000
C       -1.47650000      -0.49770000       0.07210000
C       -2.61570000      -0.23900000       1.06580000
C       -2.91840000      -1.75220000       0.95160000
N       -1.76280000      -1.96840000      -0.00190000
C       -1.96700000      -1.11000000      -1.20680000
C       -3.25540000      -0.76180000      -1.86230000
O       -4.34000000      -0.65970000      -1.33560000
H       -0.50020000       1.96630000       0.11980000
H        0.60230000      -0.57880000      -0.39870000
H        0.24890000       0.06250000       1.21180000
H       -2.24590000       0.05750000       2.05040000
H       -3.40350000       0.44580000       0.74900000
H       -2.70820000      -2.31330000       1.86390000
H       -3.89020000      -2.03480000       0.55240000
H       -1.17570000      -1.29510000      -1.92900000
H       -3.13900000      -0.57040000      -2.95260000
