16
Properties=species:S:1:pos:R:3 gdb_96663=T pbc="F F F"
C        0.78200000       1.68270000       0.14180000
N        0.72100000       0.27460000       0.47730000
C        0.34040000      -0.52840000      -0.43760000
N       -0.00750000      -0.26260000      -1.73160000
N        0.31760000      -1.89520000      -0.08220000
C       -0.13990000      -2.95420000      -0.78770000
O       -0.62170000      -2.95410000      -1.91220000
C       -0.00840000      -4.27430000      -0.02140000
O        0.44240000      -4.35420000       1.09050000
H        1.45790000       1.88710000      -0.70390000
H       -0.20520000       2.10090000      -0.11860000
H        1.15100000       2.24340000       1.00380000
H       -0.24020000       0.68820000      -1.95920000
H       -0.44640000      -1.00620000      -2.25950000
H        0.65950000      -2.08470000       0.85260000
H       -0.37670000      -5.14070000      -0.60400000
