19
Properties=species:S:1:pos:R:3 gdb_22853=T pbc="F F F"
C        0.10620000       1.48440000       0.00500000
C       -0.03860000      -0.00100000       0.01030000
C       -1.16810000      -0.75630000       0.03540000
C       -2.59710000      -0.33070000       0.13340000
C       -0.75710000      -2.14840000      -0.00460000
C        0.75440000      -2.18330000      -0.10300000
N        1.12730000      -0.77230000       0.05050000
N       -1.55870000      -3.14810000       0.05430000
O       -0.82280000      -4.35620000      -0.03320000
H        0.64520000       1.82470000       0.89660000
H        0.68480000       1.81870000      -0.86620000
H       -0.86360000       1.98240000      -0.02520000
H       -3.18180000      -0.73120000      -0.70270000
H       -3.06230000      -0.71880000       1.04750000
H       -2.70510000       0.75690000       0.13460000
H        1.19070000      -2.81270000       0.67990000
H        1.07230000      -2.59790000      -1.06830000
H        1.89720000      -0.44610000      -0.51760000
H       -1.51640000      -5.01900000       0.04330000
