18
Properties=species:S:1:pos:R:3 gdb_61202=T pbc="F F F"
C       -0.13570000       1.54700000       0.09280000
C        0.01060000       0.01580000      -0.00310000
C       -1.37810000      -0.60620000       0.05260000
O       -1.84760000      -1.11970000       1.03460000
C        0.73380000      -0.45620000      -1.28890000
O        0.13060000       0.04620000      -2.46550000
C        2.24850000      -0.14590000      -1.23890000
C        2.95830000      -0.64430000      -2.41430000
N        3.52510000      -1.04140000      -3.33900000
H        0.83450000       2.05240000       0.06100000
H       -0.75600000       1.94110000      -0.71940000
H       -0.61720000       1.81970000       1.03530000
H        0.55470000      -0.35340000       0.87310000
H       -1.94990000      -0.53530000      -0.89840000
H        0.62410000      -1.54370000      -1.36820000
H        0.28150000       0.99650000      -2.51410000
H        2.41380000       0.93570000      -1.16490000
H        2.68950000      -0.59450000      -0.34180000
