20
Properties=species:S:1:pos:R:3 gdb_5802=T pbc="F F F"
C       -0.05850000       1.56470000       0.08780000
C        0.01240000       0.02870000       0.04300000
C        0.70220000      -0.51620000       1.30820000
C       -1.40470000      -0.55110000      -0.07370000
N        0.73120000      -0.39920000      -1.17630000
C        2.05280000      -0.11560000      -1.42660000
N        2.56520000      -0.79150000      -2.53580000
O        2.74300000       0.63080000      -0.75330000
H        0.94440000       1.99030000       0.12820000
H       -0.56760000       1.95090000      -0.80090000
H       -0.61740000       1.88750000       0.97200000
H        0.15410000      -0.20850000       2.20470000
H        0.73480000      -1.61090000       1.28950000
H        1.72380000      -0.13860000       1.37360000
H       -1.90420000      -0.18880000      -0.97810000
H       -1.38490000      -1.64730000      -0.10370000
H       -2.00620000      -0.25520000       0.78990000
H        0.37080000      -1.23360000      -1.61320000
H        1.93140000      -0.96530000      -3.30240000
H        3.45020000      -0.40490000      -2.82940000
