16
Properties=species:S:1:pos:R:3 gdb_7262=T pbc="F F F"
C        0.21800000       1.55280000       0.39230000
C       -0.04770000       0.09910000      -0.04030000
O        0.48070000      -0.14570000      -1.31440000
C        0.54520000      -0.88140000       0.96660000
O        1.44820000      -1.62100000       0.63710000
C        0.00920000      -0.87590000       2.39110000
C        1.06470000      -0.32250000       3.34470000
O        0.87550000       0.60240000       4.08670000
H        1.29500000       1.74000000       0.43820000
H       -0.21230000       2.22340000      -0.35490000
H       -0.22330000       1.78650000       1.36560000
H       -1.13810000      -0.06930000      -0.05120000
H        1.16530000      -0.82170000      -1.18850000
H       -0.91270000      -0.30330000       2.49990000
H       -0.16520000      -1.92240000       2.66890000
H        2.04020000      -0.84930000       3.28950000
