19
Properties=species:S:1:pos:R:3 gdb_56767=T pbc="F F F"
C        0.01850000       1.58830000       0.20800000
C       -0.05130000       0.05840000       0.00720000
C        0.78200000      -0.62650000       1.00010000
N        1.44190000      -1.13940000       1.79810000
C       -1.48850000      -0.42910000       0.04190000
C       -2.16670000      -0.99740000       1.22440000
N       -1.88330000      -1.89090000       0.08020000
C       -2.95260000      -1.58140000      -0.93590000
C       -2.49810000      -0.10370000      -1.06180000
H        1.04890000       1.94320000       0.13600000
H       -0.57570000       2.08990000      -0.56080000
H       -0.37630000       1.86630000       1.18850000
H        0.36370000      -0.18450000      -0.98050000
H       -1.55970000      -1.22770000       2.09380000
H       -3.19920000      -0.72890000       1.44120000
H       -2.79600000      -2.17370000      -1.83890000
H       -3.96670000      -1.75790000      -0.56400000
H       -3.22470000       0.68510000      -0.84880000
H       -2.02390000       0.10690000      -2.02370000
