20
Properties=species:S:1:pos:R:3 gdb_120148=T pbc="F F F"
C       -0.86340000       1.39580000       0.92980000
O       -0.71660000      -0.00310000       0.93690000
C        0.57930000      -0.41220000       1.32870000
C        0.64680000      -1.91440000       1.20030000
C        1.52920000      -2.81390000       1.97670000
C        1.67470000      -2.41950000       3.44970000
O        2.33830000      -1.22300000       3.80160000
C        0.13520000      -2.35750000       3.50920000
N        0.00340000      -2.88590000       2.10430000
H       -0.17280000       1.87700000       0.21810000
H       -1.89020000       1.61600000       0.62780000
H       -0.68380000       1.83320000       1.92510000
H        1.34050000       0.02330000       0.65690000
H        0.81700000      -0.06240000       2.33960000
H        0.49610000      -2.23800000       0.17170000
H        2.09320000      -3.60950000       1.49750000
H        2.06180000      -3.26410000       4.03410000
H        3.28410000      -1.34740000       3.67010000
H       -0.31050000      -3.06300000       4.21180000
H       -0.30110000      -1.36880000       3.66690000
