15
Properties=species:S:1:pos:R:3 gdb_51379=T pbc="F F F"
N       -0.23300000       1.20750000       0.11140000
C       -0.15650000      -0.04000000       0.10120000
O        0.97390000      -0.87630000       0.16560000
C        0.13280000      -2.03190000      -0.09760000
C       -0.79180000      -2.22480000       1.03940000
N       -0.40610000      -1.92390000       2.37500000
C       -1.11670000      -2.36540000       3.45160000
O       -2.12650000      -3.03120000       3.38600000
C       -1.12060000      -1.16720000      -0.03650000
H        0.68790000       1.64140000       0.19140000
H        0.49550000      -2.75190000      -0.81900000
H       -1.45280000      -3.08350000       0.99230000
H        0.43550000      -1.38580000       2.51240000
H       -0.65320000      -2.04930000       4.40560000
H       -2.03870000      -1.17380000      -0.60460000
