18
Properties=species:S:1:pos:R:3 gdb_51117=T pbc="F F F"
O        0.00650000      -0.07870000      -0.18520000
C        0.02370000       1.12540000      -0.19280000
C        1.27670000       1.97050000      -0.04540000
C        1.43890000       2.94460000      -1.18510000
C        1.84410000       4.35720000      -1.02540000
N        0.44770000       4.05940000      -1.41480000
C        0.38480000       3.62580000      -2.86960000
C        1.66720000       3.55410000      -3.64630000
C        1.33700000       2.47150000      -2.65530000
H       -0.90850000       1.71950000      -0.31310000
H        1.18500000       2.53540000       0.89150000
H        2.14290000       1.30470000       0.03260000
H        1.90330000       4.73570000      -0.00850000
H        2.52170000       4.85000000      -1.71210000
H       -0.58940000       3.66380000      -3.33920000
H        1.51090000       3.25260000      -4.67810000
H        2.49770000       4.24030000      -3.52680000
H        1.23400000       1.42880000      -2.92520000
