20
Properties=species:S:1:pos:R:3 gdb_55466=T pbc="F F F"
N        0.14400000       1.13350000      -0.62900000
C        0.06340000      -0.02140000       0.09310000
O        0.99960000      -0.44820000       0.74440000
C       -1.29090000      -0.72440000       0.06200000
C       -1.12650000      -2.21710000      -0.28160000
C       -2.45180000      -2.96590000      -0.08960000
C       -3.02960000      -2.67790000       1.29670000
O       -3.18480000      -1.28390000       1.51450000
C       -1.95300000      -0.59490000       1.45140000
H        1.01790000       1.63410000      -0.63510000
H       -0.61370000       1.47010000      -1.19550000
H       -1.95500000      -0.25040000      -0.67190000
H       -0.76020000      -2.33330000      -1.30750000
H       -0.35520000      -2.62830000       0.37930000
H       -3.17760000      -2.64660000      -0.84790000
H       -2.30540000      -4.04490000      -0.21360000
H       -4.02450000      -3.11670000       1.41440000
H       -2.37370000      -3.10770000       2.07360000
H       -1.24970000      -0.97450000       2.20940000
H       -2.17400000       0.45140000       1.68290000
