12
Properties=species:S:1:pos:R:3 gdb_133147=T pbc="F F F"
C       -0.01360000       1.51590000      -0.03370000
C       -0.03150000       0.02300000      -0.09010000
C       -1.09780000      -0.75290000       0.18480000
F       -2.25980000      -0.24310000       0.54040000
C       -1.03530000      -2.21270000       0.10680000
O       -1.93330000      -2.97160000       0.33460000
O        0.20320000      -2.67900000      -0.26930000
N        1.32570000      -1.80920000      -0.55620000
N        1.16700000      -0.59310000      -0.46010000
H        0.74340000       1.85630000       0.67980000
H        0.25550000       1.92610000      -1.01220000
H       -0.98720000       1.90600000       0.26290000
