13
Properties=species:S:1:pos:R:3 gdb_132793=T pbc="F F F"
N       -0.02270000       1.42390000       0.15470000
C       -0.01220000       0.04190000       0.05220000
C       -1.17190000      -0.72870000       0.03390000
F       -2.34560000      -0.08460000       0.04700000
C       -1.12410000      -2.11400000      -0.00340000
C        0.12800000      -2.71280000      -0.02720000
N        1.26920000      -2.00860000      -0.02240000
C        1.17250000      -0.70800000       0.01430000
F        2.31280000      -0.00330000       0.00650000
H        0.81860000       1.86960000      -0.17970000
H       -0.86770000       1.86320000      -0.17910000
H       -2.04040000      -2.69050000      -0.01520000
H        0.22720000      -3.79270000      -0.05430000
