17
Properties=species:S:1:pos:R:3 gdb_30023=T pbc="F F F"
C       -0.00180000       1.45740000       0.05290000
N       -0.03260000       0.01030000       0.03590000
C       -0.06460000      -0.82830000      -1.07720000
N       -0.09180000      -2.10570000      -0.76370000
C       -0.08270000      -2.11510000       0.61070000
C       -0.04530000      -0.85170000       1.08990000
O       -0.00430000      -0.65850000       2.42420000
C       -0.13030000      -2.02970000       2.95820000
C       -0.04660000      -3.06360000       1.77370000
H        0.89270000       1.82410000       0.56540000
H        0.01170000       1.81910000      -0.97680000
H       -0.88450000       1.86350000       0.55650000
H       -0.06970000      -0.41430000      -2.07450000
H        0.66690000      -2.15410000       3.69320000
H       -1.09620000      -2.07980000       3.46800000
H       -0.88600000      -3.76590000       1.81580000
H        0.87490000      -3.65620000       1.82400000
