17
Properties=species:S:1:pos:R:3 gdb_83914=T pbc="F F F"
O       -0.02080000       1.39580000      -0.00230000
C       -0.04540000       0.01130000       0.04700000
C       -1.35780000      -0.74790000       0.05340000
C       -2.61090000       0.04250000      -0.31020000
C       -2.49570000       0.18150000      -1.84060000
O       -1.08760000       0.13210000      -2.13420000
C       -0.48240000      -0.74380000      -1.19850000
C        0.20260000      -1.88030000      -1.72580000
C        0.79510000      -2.83810000      -2.14880000
H       -0.24390000       1.63390000      -0.91470000
H        0.77250000      -0.40770000       0.62520000
H       -1.43370000      -1.64600000       0.65380000
H       -3.52140000      -0.48400000      -0.01620000
H       -2.60350000       1.02250000       0.17660000
H       -3.00400000      -0.64740000      -2.35170000
H       -2.87640000       1.12630000      -2.23620000
H        1.31680000      -3.68140000      -2.52840000
