20
Properties=species:S:1:pos:R:3 gdb_122272=T pbc="F F F"
C        0.03690000       1.12130000       0.80500000
C       -0.77930000       0.16670000      -0.04880000
O       -0.61170000      -1.14710000       0.47090000
C       -1.22090000      -2.16370000      -0.30180000
C       -2.74140000      -2.17530000      -0.17010000
C       -3.39990000      -3.24230000       0.65940000
N       -3.33420000      -1.87970000       1.15710000
C       -3.54560000      -1.61370000      -1.29590000
O       -3.10350000      -1.33400000      -2.38260000
H       -0.06820000       2.14510000       0.43420000
H       -0.30150000       1.09450000       1.84490000
H        1.09580000       0.84890000       0.78200000
H       -1.84180000       0.45350000      -0.03610000
H       -0.44770000       0.19460000      -1.09790000
H       -0.96840000      -2.06030000      -1.36560000
H       -0.79820000      -3.10200000       0.06830000
H       -4.39720000      -3.59190000       0.40380000
H       -2.74200000      -4.00340000       1.07160000
H       -2.55880000      -1.76030000       1.80710000
H       -4.61890000      -1.47210000      -1.03990000
