21
Properties=species:S:1:pos:R:3 gdb_102170=T pbc="F F F"
C        0.09990000       1.57720000      -0.15700000
N       -0.01780000       0.13510000       0.00970000
C        0.87960000      -0.36980000       1.03280000
C       -1.36520000      -0.41900000       0.08280000
C       -2.29020000       0.15000000       1.17600000
O       -2.75780000       1.42770000       0.77010000
C       -2.07620000      -0.34550000      -1.29050000
C       -1.33270000      -1.03250000      -2.34230000
N       -0.76640000      -1.59210000      -3.17970000
H        1.13790000       1.81500000      -0.41250000
H       -0.53220000       1.92570000      -0.97600000
H       -0.17440000       2.15360000       0.74180000
H        0.65390000      -0.00590000       2.05360000
H        0.85320000      -1.46390000       1.04870000
H        1.90370000      -0.06210000       0.79840000
H       -1.23690000      -1.48140000       0.32150000
H       -3.12980000      -0.54710000       1.33000000
H       -1.73260000       0.20830000       2.12260000
H       -3.31080000       1.78900000       1.46870000
H       -3.06980000      -0.80020000      -1.20940000
H       -2.24110000       0.69550000      -1.57840000
