25
Properties=species:S:1:pos:R:3 gdb_104011=T pbc="F F F"
C       -0.04750000       1.56060000       0.09090000
C       -0.02450000       0.03330000      -0.05270000
C        0.73360000      -0.51210000      -1.28410000
C        0.08270000       0.03710000      -2.56380000
C        2.28960000      -0.25870000      -1.22960000
C        2.80670000      -1.71340000      -1.21740000
C        1.92280000      -2.38710000      -2.30290000
C        0.78810000      -2.07010000      -1.28110000
C        1.85710000      -2.39090000      -0.19110000
H        0.96440000       1.97990000       0.10430000
H       -0.59540000       2.04340000      -0.72330000
H       -0.53460000       1.84920000       1.02780000
H        0.40660000      -0.39120000       0.85930000
H       -1.05900000      -0.33490000      -0.09550000
H        0.19680000       1.12300000      -2.63570000
H        0.52170000      -0.39090000      -3.46780000
H       -0.99140000      -0.18420000      -2.58020000
H        2.65030000       0.30220000      -2.09770000
H        2.59180000       0.29000000      -0.33190000
H        3.88780000      -1.85600000      -1.18360000
H        1.88770000      -1.93980000      -3.29900000
H        2.11170000      -3.45990000      -2.38820000
H       -0.17270000      -2.58810000      -1.31270000
H        2.04040000      -3.46430000      -0.09910000
H        1.76060000      -1.94920000       0.80340000
