17
Properties=species:S:1:pos:R:3 gdb_79682=T pbc="F F F"
C       -0.23950000       1.54420000      -0.05470000
N        0.16700000       0.14340000       0.09900000
C        1.37550000      -0.49890000      -0.26030000
C        2.70060000       0.17630000       0.23650000
N        2.36350000       1.46680000       0.88550000
C        2.20760000       0.19570000       1.62540000
C        0.85970000      -0.47490000       1.19570000
C        0.25600000      -1.59700000       1.92530000
O        0.68850000      -2.03190000       2.96850000
H        0.41560000       2.07400000      -0.74720000
H       -1.26450000       1.55960000      -0.44290000
H       -0.21120000       2.07000000       0.90060000
H        1.36510000      -1.33670000      -0.95110000
H        3.68860000      -0.03990000      -0.14600000
H        3.24240000       1.88450000       1.19040000
H        2.71960000      -0.01960000       2.55190000
H       -0.63430000      -2.02940000       1.41990000
