11
Properties=species:S:1:pos:R:3 gdb_50790=T pbc="F F F"
N       -0.04700000       1.44480000       0.14230000
C        0.00580000       0.17890000       0.14080000
O       -1.10780000      -0.60350000       0.25520000
C       -2.34950000      -0.05290000      -0.03450000
O       -3.33810000      -0.67050000       0.18350000
C        1.19430000      -0.61780000       0.05060000
C        2.22800000      -1.23870000      -0.02580000
C        3.39550000      -1.94020000      -0.11290000
N        4.39080000      -2.53380000      -0.18800000
H        0.87780000       1.85810000       0.04260000
H       -2.27150000       0.94680000      -0.47770000
