17
Properties=species:S:1:pos:R:3 gdb_34100=T pbc="F F F"
N       -0.01540000      -1.12860000      -0.01510000
C       -0.02240000       0.02770000       0.00570000
C       -0.01900000       1.47310000       0.03260000
C       -0.40850000       2.20940000      -1.30100000
C        0.81650000       3.11080000      -1.10430000
C        1.35560000       2.23510000      -0.02190000
N        0.95520000       3.59170000       0.27900000
C       -0.27310000       3.60000000       1.10500000
C       -0.74900000       2.12870000       1.21890000
H       -0.28470000       1.55970000      -2.16920000
H       -1.40140000       2.66900000      -1.32820000
H        1.33330000       3.66450000      -1.87930000
H        2.33930000       1.84660000       0.20950000
H       -0.03020000       4.02300000       2.08280000
H       -1.02210000       4.24800000       0.64120000
H       -1.83410000       2.02090000       1.13910000
H       -0.42990000       1.67480000       2.16180000
