17
Properties=species:S:1:pos:R:3 gdb_7049=T pbc="F F F"
C        0.01210000       1.48050000      -0.01760000
C        0.02020000       0.02450000      -0.01890000
C        0.02840000      -1.17970000      -0.00620000
C        0.02640000      -2.64110000      -0.01860000
C       -1.38980000      -3.21320000       0.17890000
C        0.67130000      -3.14450000      -1.34360000
C        0.82370000      -4.59710000      -1.38010000
N        0.94010000      -5.74700000      -1.38930000
H        0.64440000       1.88050000       0.78260000
H        0.38560000       1.88070000      -0.96650000
H       -1.00010000       1.87200000       0.13160000
H        0.65850000      -3.00080000       0.80360000
H       -1.36470000      -4.30640000       0.18410000
H       -1.80840000      -2.86930000       1.12750000
H       -2.05470000      -2.88200000      -0.62480000
H        0.05560000      -2.82870000      -2.19290000
H        1.65520000      -2.68350000      -1.47300000
