17
Properties=species:S:1:pos:R:3 gdb_106995=T pbc="F F F"
C        0.05100000       1.34220000       0.29450000
O        0.01230000      -0.00610000      -0.16770000
C       -1.24470000      -0.54370000      -0.16650000
C       -1.89680000      -1.09470000       1.10460000
C       -1.65220000      -2.03580000      -0.02860000
C       -2.75520000      -1.86060000      -1.07040000
O       -4.05640000      -2.13950000      -0.61140000
C       -2.30020000      -0.37090000      -1.21680000
O       -2.58080000       0.49400000      -2.00070000
H        1.09450000       1.65860000       0.24540000
H       -0.55900000       1.99370000      -0.34140000
H       -0.30340000       1.41560000       1.33160000
H       -1.18810000      -1.16090000       1.92400000
H       -2.91130000      -0.83700000       1.38660000
H       -0.98100000      -2.88100000       0.03530000
H       -2.52470000      -2.39150000      -2.00730000
H       -4.67620000      -1.75290000      -1.23990000
