21
Properties=species:S:1:pos:R:3 gdb_84451=T pbc="F F F"
C        0.17400000       1.64510000       0.00480000
C        0.03910000       0.11680000      -0.02820000
C        0.72740000      -0.54840000      -1.20520000
C        1.50760000      -1.56880000      -0.85200000
C        1.52420000      -1.80430000       0.63870000
C        1.18100000      -3.22430000       1.06560000
C        2.70860000      -1.10740000       1.35770000
O        1.90460000       0.05430000       1.64230000
C        0.69910000      -0.59420000       1.17170000
H        1.22360000       1.93400000       0.08990000
H       -0.24060000       2.08800000      -0.90650000
H       -0.36440000       2.06910000       0.85850000
H       -1.03330000      -0.13060000      -0.04500000
H        0.57740000      -0.20570000      -2.22460000
H        2.08440000      -2.18390000      -1.53610000
H        1.93020000      -3.93570000       0.69910000
H        1.14360000      -3.31260000       2.15640000
H        0.21000000      -3.53300000       0.66440000
H        3.03350000      -1.61070000       2.27950000
H        3.58730000      -0.86390000       0.74900000
H        0.00750000      -0.78190000       2.00210000
