16
Properties=species:S:1:pos:R:3 gdb_46893=T pbc="F F F"
O       -0.01350000       0.22180000      -1.00850000
C       -0.01820000       1.14430000      -0.23530000
O       -1.17460000       1.44960000       0.40700000
C       -1.30690000       2.63620000       1.17720000
C       -0.52470000       2.62320000       2.48140000
N        0.15680000       1.38730000       2.83230000
C        0.97130000       2.55740000       2.42850000
C        1.66020000       2.50940000       1.12250000
C        1.21100000       1.95660000      -0.01100000
H       -1.01670000       3.51320000       0.58370000
H       -2.37710000       2.70860000       1.38640000
H       -0.96640000       3.22550000       3.27330000
H        0.19310000       1.26560000       3.84050000
H        1.51190000       3.07800000       3.21370000
H        2.63470000       2.99090000       1.09400000
H        1.85400000       1.95270000      -0.88470000
