17
Properties=species:S:1:pos:R:3 gdb_114179=T pbc="F F F"
O        0.03680000       1.37480000      -0.15470000
C        0.05740000      -0.02210000       0.09680000
C       -1.37160000      -0.51860000      -0.01310000
C       -2.05330000      -0.49690000      -1.42790000
C       -2.24310000      -2.00970000      -1.31650000
O       -0.95180000      -2.61310000      -1.11560000
C       -1.57550000      -2.04410000       0.02180000
C       -3.33440000      -2.87970000      -1.78810000
O       -4.32450000      -2.47180000      -2.34470000
H        0.94480000       1.68970000      -0.18700000
H        0.68120000      -0.55750000      -0.63290000
H        0.45140000      -0.24450000       1.10250000
H       -2.00060000      -0.01870000       0.72840000
H       -2.99950000       0.04450000      -1.43960000
H       -1.42990000      -0.17050000      -2.26190000
H       -1.75300000      -2.69710000       0.87000000
H       -3.16940000      -3.95690000      -1.56810000
