20
Properties=species:S:1:pos:R:3 gdb_71405=T pbc="F F F"
C       -0.01220000       1.46640000       0.04840000
C        0.02730000      -0.02850000      -0.05830000
C       -0.58000000      -0.93350000      -1.12130000
N       -0.41910000      -2.11570000      -0.17840000
C       -0.30780000      -1.07570000       0.96430000
C        1.13900000      -0.89310000       0.59270000
C        1.07390000      -2.21920000      -0.11060000
C        1.74370000      -3.49710000       0.26150000
C        1.92330000      -2.89990000      -1.12970000
H        0.61880000       1.93710000      -0.71430000
H       -1.03250000       1.84500000      -0.08200000
H        0.34440000       1.80580000       1.02680000
H       -1.64510000      -0.73590000      -1.27600000
H       -0.07790000      -1.05530000      -2.08780000
H       -0.85410000      -1.09810000       1.89680000
H        1.93650000      -0.44840000       1.17560000
H        2.58400000      -3.46360000       0.94750000
H        1.11690000      -4.37780000       0.34940000
H        1.41880000      -3.39600000      -1.95280000
H        2.88370000      -2.46440000      -1.38550000
