12
Properties=species:S:1:pos:R:3 gdb_4423=T pbc="F F F"
O       -0.13280000       1.27470000       0.01050000
C        0.04630000      -0.04160000       0.00190000
N        1.21700000      -0.57120000      -0.00720000
C        1.22860000      -1.95610000      -0.01490000
C        0.11380000      -2.71520000      -0.01320000
C       -1.18400000      -2.08520000      -0.00270000
N       -2.30550000      -2.66620000       0.00010000
O       -1.13090000      -0.66250000       0.00490000
H        0.75230000       1.66640000       0.00800000
H        2.21640000      -2.40460000      -0.02270000
H        0.13920000      -3.79550000      -0.01930000
H       -3.07380000      -1.99620000       0.00800000
