23
Properties=species:S:1:pos:R:3 gdb_57479=T pbc="F F F"
C       -0.01760000       1.56060000      -0.02950000
C        0.00650000       0.02450000       0.01890000
C        0.68030000      -0.45610000       1.31620000
C       -1.43280000      -0.51930000      -0.03960000
C        0.78640000      -0.54690000      -1.19730000
O        0.15360000      -0.15410000      -2.42370000
C        1.10320000       0.40010000      -3.32830000
C        2.39450000       0.43950000      -2.56230000
C        2.21580000      -0.09610000      -1.36080000
H        0.99220000       1.97980000       0.02260000
H       -0.48150000       1.90900000      -0.95610000
H       -0.59240000       1.96280000       0.81150000
H        0.08740000      -0.15650000       2.18670000
H        0.77080000      -1.54840000       1.33950000
H        1.68160000      -0.03080000       1.44030000
H       -1.91800000      -0.23250000      -0.97570000
H       -1.44390000      -1.61350000       0.02510000
H       -2.02770000      -0.12960000       0.79350000
H        0.74290000      -1.64860000      -1.11710000
H        1.17730000      -0.22770000      -4.23180000
H        0.76820000       1.39660000      -3.65450000
H        3.31520000       0.83730000      -2.97010000
H        2.96920000      -0.22980000      -0.59610000
