18
Properties=species:S:1:pos:R:3 gdb_38410=T pbc="F F F"
C       -0.02690000       1.44500000       0.21620000
C        1.26650000       0.77210000      -0.12810000
C        1.86090000       0.12730000       1.13080000
C        0.57390000      -0.74420000       1.25660000
C        0.73030000      -2.28630000       1.18850000
N        0.05330000      -2.81030000       2.38440000
C       -0.38270000      -1.79050000       2.99630000
O       -0.16940000      -0.55370000       2.49310000
C       -0.02060000      -0.04940000       0.03770000
H       -0.17990000       1.87430000       1.20250000
H       -0.50200000       1.99300000      -0.59100000
H        1.80980000       0.98490000      -1.03940000
H        2.74870000      -0.48300000       0.94710000
H        2.05620000       0.80340000       1.96860000
H        0.26970000      -2.70530000       0.28670000
H        1.78130000      -2.59640000       1.18990000
H       -0.93640000      -1.80740000       3.92900000
H       -0.62770000      -0.54390000      -0.71200000
