18
Properties=species:S:1:pos:R:3 gdb_108567=T pbc="F F F"
O        0.02730000       1.29000000      -0.31830000
C       -0.00910000      -0.03770000       0.17760000
C       -1.42030000      -0.56140000       0.22100000
C       -2.43010000       0.02480000       1.20320000
O       -3.41840000      -0.99580000       1.39290000
C       -3.28650000      -1.87260000       0.28900000
C       -3.41100000      -1.11170000      -1.05280000
N       -1.91650000      -0.95380000      -1.14460000
C       -1.77460000      -1.96670000      -0.03120000
H       -0.35850000       1.25450000      -1.20170000
H        0.60950000      -0.71400000      -0.42960000
H        0.41750000      -0.00200000       1.18570000
H       -1.96200000       0.24780000       2.16800000
H       -2.88850000       0.94820000       0.82690000
H       -3.88690000      -2.76360000       0.46550000
H       -3.73860000      -1.74370000      -1.88170000
H       -3.99100000      -0.18310000      -1.04630000
H       -1.11120000      -2.82210000      -0.07390000
