16
Properties=species:S:1:pos:R:3 gdb_27052=T pbc="F F F"
C        0.10490000       1.54790000       0.18650000
C       -0.03990000       0.07340000       0.10490000
C       -1.08410000      -0.79300000       0.00990000
C       -2.55170000      -0.51950000      -0.08090000
C       -3.07550000      -0.72460000      -1.49760000
O       -3.78630000       0.05510000      -2.07520000
N       -0.59140000      -2.09910000      -0.03300000
C        0.68880000      -1.95850000       0.04270000
O        1.11050000      -0.67810000       0.13260000
H        0.68520000       1.93990000      -0.65590000
H       -0.87860000       2.02200000       0.16880000
H        0.61540000       1.84910000       1.10790000
H       -3.08450000      -1.22870000       0.56710000
H       -2.80610000       0.49390000       0.23770000
H       -2.74180000      -1.67380000      -1.97050000
H        1.44980000      -2.72300000       0.04680000
