17
Properties=species:S:1:pos:R:3 gdb_12839=T pbc="F F F"
C       -0.12920000       1.53990000       0.15400000
C        0.06020000       0.04690000       0.02830000
C       -1.17440000      -0.88030000       0.19100000
C       -0.46730000      -1.61880000       1.37140000
C        0.81370000      -0.77630000       1.12570000
N        1.87990000      -1.48500000       0.40590000
C        1.77570000      -1.12250000      -0.80600000
O        0.81570000      -0.24250000      -1.18350000
H        0.83710000       2.05310000       0.16360000
H       -0.71980000       1.93110000      -0.68100000
H       -0.65590000       1.77740000       1.08360000
H       -2.10080000      -0.36210000       0.45060000
H       -1.35630000      -1.49470000      -0.69300000
H       -0.93000000      -1.43780000       2.34460000
H       -0.32150000      -2.69290000       1.24460000
H        1.22270000      -0.24840000       1.99160000
H        2.41570000      -1.45700000      -1.61570000
