19
Properties=species:S:1:pos:R:3 gdb_22750=T pbc="F F F"
C       -0.13720000       1.60450000      -0.00520000
C        0.04480000       0.09230000       0.03520000
C       -1.28460000      -0.61900000       0.28500000
N        0.68410000      -0.54210000      -1.20780000
C        2.04880000      -0.02840000      -1.32540000
C        1.80540000      -1.09320000      -0.31820000
C        1.16390000      -0.50720000       0.88290000
N        1.28070000      -0.59730000       2.13980000
O        2.37180000      -1.41840000       2.49100000
H        0.80180000       2.14560000      -0.13920000
H       -0.81320000       1.87700000      -0.82250000
H       -0.58060000       1.94720000       0.93440000
H       -2.01180000      -0.33210000      -0.48110000
H       -1.15650000      -1.70350000       0.24600000
H       -1.67820000      -0.35060000       1.26930000
H        2.53550000      -0.33650000      -2.24640000
H        2.29400000       0.97890000      -1.00320000
H        2.19520000      -2.09940000      -0.41390000
H        2.33220000      -1.40630000       3.45320000
