6
Properties=species:S:1:pos:R:3 gdb_779=T pbc="F F F"
O        0.00250000      -0.03480000       0.00290000
C       -0.01350000       1.14600000       0.00940000
O       -1.11620000       1.96450000       0.02800000
N       -0.66080000       3.27640000       0.02920000
N        0.57580000       3.29330000       0.01310000
O        1.06660000       1.99430000      -0.00000000
