16
Properties=species:S:1:pos:R:3 gdb_71372=T pbc="F F F"
C        0.02130000       1.50030000       0.08350000
C        0.05980000       0.00870000      -0.03870000
C       -0.71880000      -1.09960000       0.69240000
N       -0.26800000      -2.08760000      -0.38600000
C        1.06690000      -2.21790000       0.34450000
C        0.71330000      -0.91110000       1.04800000
O        1.30310000      -0.30260000       2.12750000
C        0.02190000      -0.88420000      -1.22880000
O        0.07850000      -0.78240000      -2.41270000
H        0.90590000       1.94380000      -0.38410000
H       -0.86380000       1.91520000      -0.40750000
H        0.01530000       1.80030000       1.13440000
H       -1.68500000      -1.08400000       1.17400000
H        1.04680000      -3.08820000       1.00740000
H        1.94030000      -2.26120000      -0.31460000
H        1.11010000      -0.81720000       2.91950000
