21
Properties=species:S:1:pos:R:3 gdb_123062=T pbc="F F F"
O       -0.05580000       1.39080000      -0.06290000
C       -0.00900000      -0.00170000       0.20350000
C       -1.36300000      -0.58870000      -0.17350000
C       -1.43930000      -2.08880000       0.06910000
O       -2.72790000      -2.53740000      -0.31100000
C       -2.90810000      -3.91620000      -0.16590000
C       -3.25550000      -4.46540000       1.24190000
O       -4.49080000      -5.02370000       0.74910000
C       -4.32170000      -4.38870000      -0.53600000
H        0.79520000       1.77120000       0.17280000
H        0.78830000      -0.49250000      -0.37930000
H        0.20140000      -0.19710000       1.26820000
H       -2.14530000      -0.08740000       0.40590000
H       -1.56340000      -0.38200000      -1.22990000
H       -0.66870000      -2.61950000      -0.51640000
H       -1.25090000      -2.31830000       1.13150000
H       -2.09990000      -4.47100000      -0.66370000
H       -2.59850000      -5.23380000       1.66500000
H       -3.42280000      -3.67170000       1.98260000
H       -5.01540000      -3.55190000      -0.68580000
H       -4.41430000      -5.09960000      -1.36410000
