16
Properties=species:S:1:pos:R:3 gdb_73937=T pbc="F F F"
C        0.05370000       1.54010000       0.02730000
C       -0.01850000       0.05330000       0.01510000
C       -1.09340000      -0.75640000      -0.07260000
C       -0.75230000      -2.23730000      -0.05250000
C        0.78150000      -2.25910000       0.06760000
C        1.21020000      -0.78880000       0.10770000
O        2.33810000      -0.36640000       0.19790000
C       -2.43960000      -0.31190000      -0.17610000
N       -3.54330000       0.03040000      -0.26100000
H        0.67850000       1.89260000      -0.80050000
H       -0.93340000       2.00020000      -0.04800000
H        0.54190000       1.88500000       0.94520000
H       -1.25170000      -2.73440000       0.78570000
H       -1.11470000      -2.72670000      -0.96250000
H        1.13140000      -2.76230000       0.97330000
H        1.26850000      -2.75450000      -0.77710000
