16
Properties=species:S:1:pos:R:3 gdb_14427=T pbc="F F F"
O       -0.11370000       1.46920000      -0.07010000
C       -0.01200000       0.06350000      -0.09300000
C       -1.32090000      -0.69790000      -0.11950000
C       -1.75310000      -0.83410000      -1.60660000
C       -0.69690000      -0.11120000      -2.44020000
C        0.34480000      -0.65980000      -1.43090000
C       -0.72940000      -1.76100000      -0.99860000
O       -0.66580000      -3.10810000      -0.76260000
H        0.77570000       1.83640000      -0.03850000
H        0.62550000      -0.30780000       0.72140000
H       -2.04170000      -0.82700000       0.67680000
H       -2.78990000      -1.03710000      -1.84180000
H       -0.58390000      -0.56230000      -3.43010000
H       -0.76090000       0.97750000      -2.52190000
H        1.38200000      -0.82860000      -1.71500000
H       -0.62320000      -3.56540000      -1.61010000
