14
Properties=species:S:1:pos:R:3 gdb_130384=T pbc="F F F"
N       -0.03860000       1.34990000      -0.06340000
C       -0.09220000       0.00980000       0.08710000
N       -1.15520000      -0.66320000      -0.17740000
C       -1.09010000      -2.03950000      -0.10380000
N       -0.03140000      -2.80260000      -0.21190000
O       -0.48000000      -4.08940000      -0.10760000
N       -1.85860000      -4.13440000       0.05640000
C       -2.23980000      -2.88650000       0.05990000
N       -3.52680000      -2.44410000       0.25300000
H        0.73520000       1.87520000       0.30130000
H       -0.87730000       1.84570000      -0.31950000
H        0.83820000      -0.45070000       0.43140000
H       -4.24710000      -3.11070000       0.01710000
H       -3.68720000      -1.52070000      -0.12370000
