17
Properties=species:S:1:pos:R:3 gdb_55254=T pbc="F F F"
O        0.53150000       0.63190000       0.28620000
C       -0.33120000       1.43750000       0.49180000
O       -0.43080000       2.17350000       1.63160000
C       -1.52570000       1.83380000      -0.37630000
C       -2.77360000       1.28130000       0.36700000
N       -2.82790000       2.12630000       1.59040000
C       -1.69350000       3.01240000       1.48710000
N       -1.70310000       4.07490000       2.41190000
H       -1.87420000       3.74470000       3.35600000
H       -0.81140000       4.55810000       2.40550000
C       -1.63550000       3.32630000      -0.01100000
H       -1.43020000       1.53960000      -1.41840000
H       -3.67640000       1.42550000      -0.23670000
H       -2.68570000       0.21630000       0.60080000
H       -2.77040000       1.56760000       2.43450000
H       -0.75910000       3.91660000      -0.28350000
H       -2.54780000       3.81370000      -0.35860000
