19
Properties=species:S:1:pos:R:3 gdb_80739=T pbc="F F F"
C        0.11770000       1.81680000       0.06480000
N       -0.00000000       0.37130000       0.01150000
C        1.06130000      -0.52930000      -0.40410000
C        2.51680000      -0.08450000      -0.40310000
C        2.82060000       0.41760000       1.04650000
C        1.65380000      -0.10100000       1.94940000
C        0.54490000      -0.53920000       1.00360000
C        4.13230000      -0.01260000       1.52460000
N        5.16790000      -0.36160000       1.90210000
H        1.07790000       2.21800000       0.41980000
H       -0.05900000       2.21790000      -0.93810000
H       -0.66730000       2.20630000       0.72050000
H        0.77410000      -1.27500000      -1.14170000
H        3.14750000      -0.94300000      -0.65080000
H        2.73170000       0.69440000      -1.14120000
H        2.82960000       1.51080000       1.05740000
H        1.97860000      -0.96540000       2.53560000
H        1.33690000       0.66770000       2.66100000
H       -0.14770000      -1.29270000       1.37120000
