13
Properties=species:S:1:pos:R:3 gdb_131931=T pbc="F F F"
C        0.03990000       1.44650000      -0.01680000
C       -0.07510000      -0.03190000       0.00750000
N       -1.12220000      -0.77030000      -0.17800000
C       -0.64990000      -2.05320000      -0.04280000
C        0.67940000      -2.05210000       0.22250000
O        1.06440000      -0.75410000       0.25790000
N       -1.48610000      -3.22380000      -0.17230000
O       -2.66930000      -3.06080000      -0.41370000
O       -0.91810000      -4.30380000      -0.02450000
H        0.74580000       1.77040000      -0.78800000
H       -0.94110000       1.87250000      -0.22580000
H        0.40070000       1.82570000       0.94440000
H        1.41870000      -2.81290000       0.39430000
