21
Properties=species:S:1:pos:R:3 gdb_94872=T pbc="F F F"
C       -0.00770000       1.61720000      -0.05060000
C        0.02400000       0.08830000       0.00540000
C        0.78330000      -0.56300000      -1.20090000
C        1.26170000      -1.96610000      -0.72110000
C        1.47190000      -1.74670000       0.75690000
C        2.21860000      -0.58000000       1.31520000
C        0.70080000      -0.53670000       1.21520000
C        0.10810000      -1.50130000       2.24870000
O        0.95610000      -2.59930000       1.79400000
H        1.00530000       2.03090000       0.00300000
H       -0.46510000       1.97180000      -0.98070000
H       -0.58080000       2.03290000       0.78420000
H       -1.01060000      -0.28150000      -0.00810000
H        0.15960000      -0.61990000      -2.09770000
H        1.64830000       0.05640000      -1.46620000
H        0.46710000      -2.70990000      -0.84400000
H        2.13780000      -2.32000000      -1.27380000
H        2.67870000      -0.68180000       2.29270000
H        2.76780000       0.04270000       0.61770000
H        0.26340000      -1.27970000       3.31140000
H       -0.95020000      -1.72820000       2.07160000
