22
Properties=species:S:1:pos:R:3 gdb_114232=T pbc="F F F"
C       -0.35480000       1.40970000       0.59150000
C       -0.16810000      -0.07930000       0.43740000
N        1.02380000      -0.52030000      -0.32000000
C        0.92190000      -0.83350000       1.10260000
C        1.90690000      -0.35580000       2.17710000
C        1.55870000      -1.63520000       2.99910000
C        0.65000000      -1.36470000       4.18370000
O        0.21920000      -2.61400000       4.70410000
C        0.81720000      -2.21720000       1.75590000
H        0.60770000       1.90420000       0.74700000
H       -0.81070000       1.84040000      -0.30660000
H       -1.00590000       1.63890000       1.44280000
H       -1.08830000      -0.64040000       0.27070000
H        0.80970000      -1.34570000      -0.87580000
H        2.93910000      -0.34120000       1.81790000
H        1.69150000       0.60440000       2.65710000
H        2.41590000      -2.22290000       3.33550000
H        1.19800000      -0.78170000       4.94210000
H       -0.20790000      -0.75250000       3.85770000
H       -0.38340000      -2.44550000       5.43420000
H       -0.18310000      -2.61930000       1.93770000
H        1.40920000      -2.97480000       1.23190000
