21
Properties=species:S:1:pos:R:3 gdb_108063=T pbc="F F F"
C        0.19920000       1.44840000       0.20960000
C       -0.04710000      -0.02970000      -0.12460000
C        0.68160000      -0.47630000      -1.36000000
C        0.43380000      -0.04660000      -2.80900000
C        1.33890000      -1.24310000      -3.20680000
C        2.74950000      -0.83430000      -2.68690000
C        2.13410000      -0.97310000      -1.29910000
O        2.77970000      -0.95320000      -0.07860000
C        1.03570000      -1.89360000      -1.79730000
H        1.26120000       1.62920000       0.40110000
H       -0.11000000       2.09930000      -0.61540000
H       -0.36290000       1.74940000       1.09920000
H        0.27230000      -0.65100000       0.71940000
H       -1.12320000      -0.20530000      -0.25570000
H       -0.61110000      -0.21110000      -3.09140000
H        0.74850000       0.95290000      -3.13350000
H        1.23260000      -1.73930000      -4.16860000
H        3.49030000      -1.61920000      -2.87500000
H        3.14890000       0.13700000      -3.00230000
H        3.37410000      -1.71030000      -0.03760000
H        0.67520000      -2.85950000      -1.47320000
