21
Properties=species:S:1:pos:R:3 gdb_104152=T pbc="F F F"
C        0.06550000       1.53450000       0.00840000
C       -0.07730000       0.01340000       0.10240000
C       -1.52370000      -0.51490000      -0.02740000
C       -2.14050000      -0.16030000      -1.38720000
C       -1.56300000      -2.05860000       0.22760000
O       -2.34350000      -2.21560000       1.42890000
C       -2.72530000      -0.95560000       1.77500000
N       -3.44850000      -0.90450000       2.93690000
N       -2.36160000       0.03120000       1.05670000
H        1.09630000       1.83770000       0.21740000
H       -0.18940000       1.90820000      -0.98800000
H       -0.59170000       2.02330000       0.73210000
H        0.54090000      -0.47060000      -0.66650000
H        0.31110000      -0.32420000       1.07140000
H       -1.52780000      -0.54420000      -2.21130000
H       -3.14290000      -0.59080000      -1.47340000
H       -2.23400000       0.92200000      -1.50010000
H       -2.05540000      -2.61400000      -0.57690000
H       -0.57360000      -2.49100000       0.40420000
H       -3.97530000      -1.73710000       3.15110000
H       -3.95080000      -0.04040000       3.06700000
