21
Properties=species:S:1:pos:R:3 gdb_121389=T pbc="F F F"
O       -0.10560000       1.50390000       0.13320000
C        0.03830000       0.09180000       0.10820000
C       -1.35150000      -0.51080000      -0.05830000
C       -1.36400000      -2.04960000      -0.09980000
C       -2.79040000      -2.58050000       0.10150000
O       -2.86390000      -3.98020000      -0.09860000
C       -2.58670000      -4.35450000      -1.43310000
C       -1.40060000      -3.63700000      -2.01380000
C       -0.82490000      -2.60760000      -1.39710000
H        0.76790000       1.89420000       0.22910000
H        0.69650000      -0.22240000      -0.71720000
H        0.49050000      -0.28050000       1.04240000
H       -1.96850000      -0.16170000       0.77930000
H       -1.80450000      -0.10650000      -0.97150000
H       -0.74690000      -2.41960000       0.73370000
H       -3.13500000      -2.39920000       1.12390000
H       -3.47570000      -2.05510000      -0.58580000
H       -2.40990000      -5.43690000      -1.41590000
H       -3.47310000      -4.19020000      -2.07510000
H       -1.03230000      -4.00080000      -2.96980000
H        0.04530000      -2.12710000      -1.83720000
