22
Properties=species:S:1:pos:R:3 gdb_118918=T pbc="F F F"
C       -0.17290000       1.58950000      -0.12560000
C       -0.08690000       0.06260000      -0.04270000
C        0.80790000      -0.53470000      -1.13510000
C        0.82610000      -2.06900000      -1.16680000
C        1.44440000      -2.70180000       0.08390000
N       -0.49620000      -2.66010000      -1.57520000
C        0.08870000      -3.38850000      -2.73350000
C        1.41440000      -2.66140000      -2.46620000
O        2.46460000      -2.57000000      -3.02840000
H        0.81530000       2.04960000      -0.01460000
H       -0.57950000       1.91020000      -1.09100000
H       -0.81900000       1.99470000       0.65940000
H        0.28570000      -0.22340000       0.94850000
H       -1.08960000      -0.37100000      -0.13890000
H        0.45500000      -0.17910000      -2.11080000
H        1.83930000      -0.17590000      -1.02520000
H        0.84060000      -2.48210000       0.97040000
H        1.51460000      -3.79030000      -0.01520000
H        2.45320000      -2.31440000       0.25520000
H       -0.88570000      -3.27910000      -0.87310000
H        0.17500000      -4.47830000      -2.62630000
H       -0.39030000      -3.17330000      -3.69500000
