21
Properties=species:S:1:pos:R:3 gdb_107188=T pbc="F F F"
C       -0.00960000       1.44290000      -0.06890000
O       -0.01000000       0.02610000      -0.01990000
C        0.62740000      -0.51570000       1.07510000
C        0.02610000      -1.68810000       1.76610000
C        0.31930000      -0.42650000       2.56690000
C        1.82360000      -0.15640000       2.85250000
C        2.82370000      -1.17640000       2.36240000
C        2.82560000      -2.69980000       2.49590000
C        2.14020000      -0.26610000       1.36430000
H        1.00190000       1.85370000      -0.18860000
H       -0.60840000       1.72800000      -0.93680000
H       -0.45660000       1.87330000       0.83770000
H       -1.03300000      -1.78110000       1.54040000
H        0.52400000      -2.63530000       1.91330000
H       -0.47190000       0.09370000       3.09060000
H        2.11690000       0.63830000       3.52860000
H        3.82320000      -0.77390000       2.53150000
H        2.59650000      -3.19980000       1.55060000
H        3.81940000      -3.03750000       2.80570000
H        2.11900000      -3.05280000       3.25090000
H        2.71520000       0.42200000       0.75650000
