15
Properties=species:S:1:pos:R:3 gdb_20434=T pbc="F F F"
C        0.04410000       1.45470000       0.06810000
C        1.53110000       1.84690000      -0.13900000
N        2.15270000       0.55400000       0.05180000
N        3.44880000       0.16680000       0.11170000
C        3.35980000      -1.16160000       0.06010000
C        2.02650000      -1.63560000      -0.07410000
C        1.28510000      -0.47120000      -0.09190000
N       -0.00500000       0.01910000      -0.31100000
H       -0.23250000       1.60080000       1.12100000
H       -0.63190000       2.04450000      -0.55440000
H        1.71950000       2.22830000      -1.15030000
H        1.88060000       2.58420000       0.58660000
H        4.26120000      -1.75470000       0.12490000
H        1.68280000      -2.65340000      -0.14590000
H       -0.74690000      -0.50100000       0.13760000
