14
Properties=species:S:1:pos:R:3 gdb_132562=T pbc="F F F"
C       -0.02980000       1.50660000      -0.01230000
C       -0.00210000       0.00430000      -0.00770000
N       -0.02410000      -0.64500000      -1.17930000
C        0.00050000      -1.95850000      -1.17000000
F       -0.02360000      -2.55230000      -2.36180000
C        0.04790000      -2.75600000      -0.03200000
C        0.07130000      -2.09770000       1.19090000
C        0.04570000      -0.71260000       1.18700000
F        0.06690000      -0.04040000       2.34510000
H        0.85720000       1.91800000       0.48100000
H       -0.06740000       1.86550000      -1.04100000
H       -0.90000000       1.88570000       0.53400000
H        0.06540000      -3.83520000      -0.11080000
H        0.10830000      -2.63520000       2.13120000
