21
Properties=species:S:1:pos:R:3 gdb_98266=T pbc="F F F"
C        0.10000000       1.46780000       0.13250000
C       -0.14960000       0.02210000      -0.29550000
C       -1.55810000      -0.45480000      -0.02170000
O       -2.46960000       0.30510000       0.23550000
C       -1.85760000      -1.96050000      -0.05710000
O       -3.24440000      -2.15040000       0.09520000
C       -1.41850000      -2.61450000      -1.38250000
C       -1.65180000      -4.12550000      -1.37600000
O       -2.10320000      -1.97640000      -2.45020000
H        1.11300000       1.77760000      -0.13730000
H       -0.61160000       2.14100000      -0.35020000
H       -0.01840000       1.58440000       1.21340000
H        0.00410000      -0.09270000      -1.37780000
H        0.56010000      -0.66940000       0.17600000
H       -1.30270000      -2.42370000       0.77840000
H       -3.58850000      -1.26660000       0.31510000
H       -0.35370000      -2.41410000      -1.54510000
H       -2.70030000      -4.34850000      -1.15930000
H       -1.39880000      -4.54050000      -2.35490000
H       -1.03340000      -4.61740000      -0.61740000
H       -3.03500000      -1.98100000      -2.19150000
