17
Properties=species:S:1:pos:R:3 gdb_3168=T pbc="F F F"
C       -0.22080000       1.44060000       0.00640000
C        1.22330000       1.01280000      -0.02380000
C        0.13570000      -0.03440000      -0.00040000
C       -0.09560000      -0.94270000       1.21920000
C       -0.87330000      -2.17250000       0.67100000
C       -0.71480000      -2.05060000      -0.82780000
C       -0.17530000      -0.88400000      -1.18010000
H       -0.61230000       1.85780000       0.92880000
H       -0.65010000       1.86910000      -0.89350000
H        1.78280000       1.15290000      -0.94330000
H        1.81340000       1.14250000       0.87830000
H        0.86850000      -1.26560000       1.62660000
H       -0.63140000      -0.43360000       2.02500000
H       -0.48060000      -3.11780000       1.06280000
H       -1.93540000      -2.14570000       0.95170000
H       -1.04410000      -2.82150000      -1.51540000
H        0.00790000      -0.55120000      -2.19660000
