14
Properties=species:S:1:pos:R:3 gdb_43594=T pbc="F F F"
O        0.03480000      -0.01880000      -0.06680000
C        0.04730000       1.16890000      -0.01700000
O       -1.08790000       1.91430000       0.17910000
C       -0.80110000       3.32460000       0.13260000
C       -1.38110000       4.01250000       1.27720000
C       -1.84710000       4.60300000       2.21310000
C        0.72750000       3.38490000       0.04750000
C        1.49590000       2.72100000       1.11730000
N        1.19860000       2.01160000      -0.16190000
H       -1.23420000       3.71950000      -0.79430000
H       -2.26670000       5.12010000       3.04110000
H        1.16910000       4.15990000      -0.56830000
H        2.54540000       2.95420000       1.25680000
H        0.96440000       2.39790000       2.00800000
