18
Properties=species:S:1:pos:R:3 gdb_41037=T pbc="F F F"
C       -0.04670000       1.49150000       0.16280000
O        1.30090000       1.59420000      -0.36120000
C        1.48810000       0.18060000      -0.47490000
C        1.01180000      -0.34390000      -1.90300000
C       -0.28720000      -0.80050000      -1.18130000
C       -1.78650000      -0.76110000      -0.73180000
N       -1.02930000      -1.05640000       0.61600000
C       -0.20420000      -2.02720000      -0.24230000
C       -0.00780000      -0.02310000       0.06670000
H       -0.09070000       1.87530000       1.18990000
H       -0.78090000       2.03030000      -0.45140000
H        2.44910000      -0.15190000      -0.07580000
H        0.92370000       0.49990000      -2.58990000
H        1.59170000      -1.14360000      -2.37060000
H       -2.29680000       0.20380000      -0.74360000
H       -2.46030000      -1.57540000      -1.01440000
H       -0.75220000      -2.92730000      -0.53370000
H        0.76460000      -2.27580000       0.20010000
