22
Properties=species:S:1:pos:R:3 gdb_99020=T pbc="F F F"
C       -0.05330000       1.56670000       0.13760000
C        0.03730000       0.03920000       0.06860000
C        0.65850000      -0.56180000       1.33310000
C       -1.33680000      -0.57400000      -0.20520000
O        0.81480000      -0.36500000      -1.11390000
C        2.10130000      -0.02050000      -1.26760000
O        2.76220000       0.63350000      -0.49620000
C        2.64240000      -0.57850000      -2.58660000
N        4.03450000      -0.27260000      -2.86320000
H        0.92400000       2.01270000       0.32200000
H       -0.45590000       1.96680000      -0.79810000
H       -0.73030000       1.85590000       0.94760000
H        0.01020000      -0.35720000       2.19090000
H        0.75230000      -1.64750000       1.23200000
H        1.64330000      -0.13800000       1.52940000
H       -1.75840000      -0.17650000      -1.13250000
H       -1.26200000      -1.66090000      -0.29920000
H       -2.02220000      -0.34280000       0.61500000
H        2.49240000      -1.66440000      -2.57950000
H        2.00840000      -0.19970000      -3.39680000
H        4.15910000       0.73610000      -2.84140000
H        4.60470000      -0.61500000      -2.09430000
