16
Properties=species:S:1:pos:R:3 gdb_50611=T pbc="F F F"
N       -0.12760000       1.34930000      -0.20390000
C       -0.09150000       0.08070000      -0.09650000
N       -1.21850000      -0.67330000       0.12410000
C       -1.25500000      -2.14070000       0.03780000
C       -2.78620000      -2.40750000      -0.02080000
N       -3.45020000      -1.10460000       0.12600000
C       -2.54350000      -0.20970000       0.18400000
C       -2.87280000       1.24650000       0.42160000
O       -3.81410000       1.78100000      -0.09940000
H        0.80290000       1.73230000      -0.34610000
H        0.81050000      -0.53820000      -0.16200000
H       -0.72860000      -2.49220000      -0.85440000
H       -0.78310000      -2.59390000       0.91630000
H       -3.09510000      -2.85960000      -0.96960000
H       -3.11830000      -3.07890000       0.77630000
H       -2.21400000       1.75660000       1.14440000
