15
Properties=species:S:1:pos:R:3 gdb_75627=T pbc="F F F"
O        0.63520000       0.72420000      -0.81850000
C        0.12950000      -0.36660000      -0.11460000
C        0.07520000      -0.26160000       1.41550000
O        0.58750000       0.52510000       2.16610000
C       -1.25830000      -1.01510000       1.51170000
O       -2.17300000      -0.58870000       2.47210000
C       -1.39740000      -0.60150000       0.02320000
C       -2.47700000       0.15740000      -0.59530000
O       -2.22200000      -1.22380000      -0.92850000
H        0.79350000       1.43240000      -0.18110000
H        0.61410000      -1.28920000      -0.46050000
H       -1.12770000      -2.10310000       1.58050000
H       -1.81790000       0.21440000       2.87440000
H       -3.38990000       0.33500000      -0.03120000
H       -2.23930000       0.87270000      -1.37960000
