16
Properties=species:S:1:pos:R:3 gdb_109194=T pbc="F F F"
C        0.00820000       1.31120000       0.14170000
O       -0.07810000      -0.10840000      -0.03810000
C       -1.31070000      -0.60040000      -0.08170000
N       -2.40450000       0.04870000       0.01610000
C       -3.47280000      -0.94020000      -0.10780000
C       -2.76890000      -2.34580000       0.00740000
N       -1.38410000      -1.97820000      -0.30160000
C       -2.90360000      -2.94220000       1.34620000
N       -2.99700000      -3.41900000       2.39510000
H        1.07350000       1.54020000       0.16370000
H       -0.48180000       1.83030000      -0.68560000
H       -0.47050000       1.60670000       1.07860000
H       -4.23690000      -0.80640000       0.66130000
H       -3.96160000      -0.85730000      -1.08610000
H       -3.16360000      -3.05820000      -0.72200000
H       -0.64270000      -2.54320000       0.08970000
