22
Properties=species:S:1:pos:R:3 gdb_103970=T pbc="F F F"
C       -0.21400000       1.55680000      -0.04840000
C        0.02540000       0.04400000      -0.00550000
C        0.80540000      -0.43540000       1.22580000
O        2.09130000       0.15910000       1.28530000
C       -0.06290000      -0.44160000       2.53930000
C       -0.04760000      -1.98080000       2.49340000
C        0.86020000      -1.97460000       1.27960000
N        1.27790000      -2.53930000       2.53790000
C        2.35580000      -2.02180000       3.37200000
H        0.72800000       2.11400000      -0.10850000
H       -0.79980000       1.83280000      -0.92990000
H       -0.75950000       1.90740000       0.83460000
H       -0.93530000      -0.48310000      -0.03890000
H        0.58530000      -0.26310000      -0.89760000
H        1.98010000       1.11540000       1.31350000
H        0.39230000       0.01730000       3.42110000
H       -1.05900000      -0.01680000       2.39360000
H       -0.89470000      -2.62370000       2.70820000
H        0.85990000      -2.61130000       0.39940000
H        2.39880000      -0.93160000       3.45510000
H        2.24980000      -2.45630000       4.37160000
H        3.30760000      -2.36110000       2.95280000
