17
Properties=species:S:1:pos:R:3 gdb_12383=T pbc="F F F"
C       -0.00760000       1.56330000      -0.04290000
C        0.08380000       0.03930000       0.01840000
C        0.74810000      -0.55680000      -1.23010000
O        0.88080000      -1.96550000      -1.08940000
C        1.70190000      -2.26240000      -0.01380000
O        1.20550000      -1.76860000       1.23300000
C        0.78090000      -0.46420000       1.27100000
N        0.87530000       0.23370000       2.32090000
H        0.98800000       2.01460000      -0.09500000
H       -0.57480000       1.87580000      -0.92580000
H       -0.49750000       1.95460000       0.84920000
H       -0.92910000      -0.38580000       0.05930000
H        0.13860000      -0.38240000      -2.11960000
H        1.73850000      -0.10010000      -1.39500000
H        1.74670000      -3.34750000       0.08950000
H        2.71320000      -1.84780000      -0.16680000
H        1.34140000      -0.30310000       3.05550000
