17
Properties=species:S:1:pos:R:3 gdb_33839=T pbc="F F F"
N        0.06530000      -1.14530000       0.10100000
C        0.05980000       0.01040000       0.05290000
C        0.03160000       1.43630000      -0.06040000
C       -0.70930000       2.22860000      -1.16190000
C        0.44810000       3.25190000      -1.12940000
C        1.08560000       3.90660000      -2.31480000
C        0.39800000       4.74760000      -1.26060000
C        1.16020000       2.44950000      -0.05680000
N        0.32060000       2.25790000       1.11420000
H       -0.76280000       1.68280000      -2.10640000
H       -1.71030000       2.57570000      -0.88660000
H        2.16960000       3.93360000      -2.35880000
H        0.60330000       3.79650000      -3.28050000
H       -0.55390000       5.20180000      -1.51590000
H        1.01590000       5.34580000      -0.59880000
H        2.22650000       2.28100000       0.04190000
H       -0.36610000       3.00120000       1.23420000
