20
Properties=species:S:1:pos:R:3 gdb_106579=T pbc="F F F"
C        0.00590000       1.54340000       0.04780000
C       -0.01370000       0.01120000      -0.02740000
C       -1.40660000      -0.57360000      -0.02060000
N       -2.32420000      -0.31210000       1.17190000
C       -3.10340000      -1.47180000       0.57940000
C       -3.52290000      -0.84260000      -0.75090000
C       -2.39650000      -0.24430000      -1.15130000
C       -1.72340000      -2.11250000       0.17680000
O       -1.59280000      -3.04210000      -0.84770000
H        1.03250000       1.92060000       0.07460000
H       -0.49280000       1.99150000      -0.81770000
H       -0.51450000       1.89480000       0.94300000
H        0.50100000      -0.33120000      -0.93420000
H        0.55070000      -0.40680000       0.81610000
H       -1.84090000      -0.66360000       2.00590000
H       -3.84860000      -1.96800000       1.19990000
H       -4.49870000      -0.88630000      -1.21230000
H       -2.18940000       0.34100000      -2.03590000
H       -1.19300000      -2.52340000       1.04230000
H       -2.06850000      -2.68040000      -1.60850000
