17
Properties=species:S:1:pos:R:3 gdb_102956=T pbc="F F F"
O       -0.15230000       1.46010000       0.15250000
C        0.01120000       0.06890000       0.03910000
C       -1.33140000      -0.67270000      -0.18840000
C       -1.11990000      -2.19010000      -0.36200000
O       -2.28780000      -2.83180000      -0.83760000
C       -3.09050000      -3.43970000       0.07160000
N       -4.16660000      -3.96870000      -0.30950000
C       -2.23530000      -0.38500000       0.92710000
N       -2.89990000      -0.14150000       1.84160000
H       -0.63270000       1.64560000       0.96780000
H        0.64660000      -0.09890000      -0.83590000
H        0.52140000      -0.36210000       0.91390000
H       -1.78820000      -0.28310000      -1.10480000
H       -0.34680000      -2.35000000      -1.11910000
H       -0.77700000      -2.63890000       0.57880000
H       -2.69050000      -3.41240000       1.09350000
H       -4.64780000      -4.39180000       0.48110000
