18
Properties=species:S:1:pos:R:3 gdb_106082=T pbc="F F F"
O        0.31680000       1.25060000      -0.48470000
C        0.20690000       0.07350000       0.30110000
C       -1.20380000      -0.42610000       0.36390000
C       -1.76090000      -1.78060000       0.30400000
C       -2.70430000      -1.95550000       1.50900000
C       -3.24710000      -0.53650000       1.60290000
C       -2.48200000       0.28010000       0.84410000
C       -2.92760000       0.39800000      -0.61110000
N       -1.96480000      -0.77680000      -0.87420000
H        0.03090000       1.01070000      -1.37360000
H        0.85640000      -0.72810000      -0.08330000
H        0.56210000       0.33870000       1.30240000
H       -1.18390000      -2.62080000      -0.07360000
H       -3.54440000      -2.63800000       1.33690000
H       -2.13070000      -2.36540000       2.35300000
H       -4.32120000      -0.38630000       1.67610000
H       -3.98350000       0.22190000      -0.83340000
H       -2.53950000       1.23600000      -1.19610000
