22
Properties=species:S:1:pos:R:3 gdb_85893=T pbc="F F F"
C       -0.30290000       1.52160000      -0.17040000
N       -0.19410000       0.09000000       0.00730000
C       -1.33610000      -0.64450000       0.58030000
C       -0.34130000      -1.57300000       1.33650000
C       -0.62000000      -1.83340000       2.81000000
C       -0.06380000      -2.87360000       0.58020000
C        0.71000000      -0.43150000       1.03800000
C        2.08330000      -0.84280000       0.56130000
O        2.98730000      -1.14740000       1.29830000
H        0.65330000       1.92860000      -0.51630000
H       -1.05660000       1.74360000      -0.93310000
H       -0.58660000       2.05390000       0.75710000
H       -1.93850000      -0.03600000       1.27480000
H       -2.00350000      -1.10500000      -0.15750000
H       -1.47150000      -2.51340000       2.92960000
H        0.24740000      -2.29730000       3.29220000
H       -0.84920000      -0.90820000       3.34760000
H        0.11390000      -2.68620000      -0.48290000
H        0.81020000      -3.39140000       0.98910000
H       -0.92210000      -3.54920000       0.66470000
H        0.82300000       0.22050000       1.92030000
H        2.18760000      -0.87480000      -0.54760000
