16
Properties=species:S:1:pos:R:3 gdb_55736=T pbc="F F F"
N       -0.12730000       1.27890000      -0.09060000
C        0.01740000      -0.04160000       0.21980000
O        0.92600000      -0.53260000       0.83840000
O       -1.08640000      -0.72860000      -0.22900000
C       -1.00450000      -2.12130000      -0.12890000
C       -1.20290000      -2.77780000       1.22090000
C       -2.30480000      -2.82450000       0.21080000
C       -0.09640000      -2.76970000      -1.10970000
O        0.55050000      -2.17800000      -1.93380000
H        0.70050000       1.84110000       0.01320000
H       -0.76490000       1.52510000      -0.82940000
H       -0.63590000      -3.67830000       1.42960000
H       -1.29500000      -2.09420000       2.05510000
H       -3.15550000      -2.16740000       0.34640000
H       -2.52070000      -3.75830000      -0.29640000
H       -0.07230000      -3.88040000      -1.02370000
