15
Properties=species:S:1:pos:R:3 gdb_129647=T pbc="F F F"
N        0.09510000       1.41220000       0.07630000
C       -0.00240000       0.02620000       0.01580000
C       -1.12690000      -0.77780000       0.01600000
N       -2.45590000      -0.27710000      -0.01310000
C       -0.61360000      -2.10870000       0.01950000
N        0.72330000      -2.12400000       0.01590000
N        1.06380000      -0.81220000       0.02820000
C       -1.38430000      -3.29750000       0.00250000
C       -2.09560000      -4.26910000      -0.01310000
H        0.73220000       1.80650000      -0.60650000
H       -0.82970000       1.81090000      -0.05130000
H       -2.91540000      -0.39340000       0.88620000
H       -3.01820000      -0.78840000      -0.68670000
H        2.03770000      -0.56620000       0.07680000
H       -2.70260000      -5.14000000      -0.02500000
