13
Properties=species:S:1:pos:R:3 gdb_1654=T pbc="F F F"
N       -0.04970000       1.31560000       0.12730000
C        0.07140000      -0.03700000       0.01840000
N        1.12160000      -0.76720000      -0.05420000
C       -1.28400000      -0.73350000       0.01060000
O       -2.30220000      -0.08260000      -0.00330000
C       -1.25810000      -2.24880000       0.01370000
O       -2.57970000      -2.72620000      -0.00850000
H        0.73500000       1.91370000      -0.06540000
H       -0.98100000       1.68890000       0.01860000
H        1.97710000      -0.20760000      -0.04770000
H       -0.65980000      -2.57320000      -0.85100000
H       -0.69340000      -2.56780000       0.90380000
H       -2.54180000      -3.68670000      -0.01620000
