12
Properties=species:S:1:pos:R:3 gdb_3806=T pbc="F F F"
C        0.00700000       1.37840000      -0.02800000
O        0.02160000      -0.04790000      -0.03340000
C        0.62020000      -0.61280000      -1.08070000
N        1.17810000       0.06430000      -2.07550000
N        1.63280000      -0.95360000      -2.86270000
C        1.32990000      -2.14090000      -2.31020000
N        0.68420000      -1.96960000      -1.17330000
H        1.02560000       1.77940000      -0.02800000
H       -0.52220000       1.76680000      -0.90420000
H       -0.51280000       1.66710000       0.88600000
H        2.11640000      -0.74490000      -3.71950000
H        1.59210000      -3.08760000      -2.75860000
