17
Properties=species:S:1:pos:R:3 gdb_79614=T pbc="F F F"
C       -0.11230000       1.51020000       0.05700000
N        0.06250000       0.06750000      -0.06890000
C        0.53040000      -0.69410000      -1.20400000
C        1.43880000      -0.15120000      -2.29720000
C        1.86780000       1.27350000      -2.42710000
N        2.68990000       0.29750000      -1.68730000
C        2.56290000       0.19130000      -0.26200000
O        3.32640000       0.68660000       0.52240000
C        1.32620000      -0.63890000       0.07290000
H        0.82120000       2.08420000       0.10490000
H       -0.72120000       1.88130000      -0.77270000
H       -0.65850000       1.70300000       0.98580000
H       -0.09010000      -1.54400000      -1.47510000
H        1.54540000      -0.80240000      -3.16200000
H        2.30780000       1.60410000      -3.36420000
H        1.36030000       2.05000000      -1.87260000
H        1.39400000      -1.40190000       0.84370000
