18
Properties=species:S:1:pos:R:3 gdb_72553=T pbc="F F F"
C        0.02420000       1.49360000       0.09500000
C       -0.00920000      -0.00400000      -0.04190000
C        0.63740000      -0.71520000      -1.24560000
C        0.26600000      -2.08770000      -0.66660000
C        0.89440000      -1.99790000       0.72670000
O        0.67960000      -0.62230000       1.08040000
O       -1.16780000      -1.96520000      -0.47270000
C       -1.38490000      -0.66380000      -0.07360000
N       -2.49570000      -0.14990000       0.22050000
H        1.05730000       1.84340000       0.16600000
H       -0.45760000       1.96310000      -0.76600000
H       -0.51920000       1.79590000       0.99290000
H        0.14420000      -0.51280000      -2.19830000
H        1.71150000      -0.53430000      -1.31650000
H        0.46550000      -2.98780000      -1.24410000
H        0.38900000      -2.65840000       1.43930000
H        1.96800000      -2.22400000       0.71990000
H       -3.24940000      -0.83590000       0.14110000
