17
Properties=species:S:1:pos:R:3 gdb_3615=T pbc="F F F"
C       -0.00430000       1.54210000       0.05320000
C        1.52300000       1.52870000      -0.01760000
C        2.09960000       0.50530000       0.94960000
C        1.24320000       0.03370000       2.12610000
C       -0.00370000      -0.59970000       1.44650000
C        0.02200000      -0.02290000       0.02440000
C        1.52810000       0.04850000      -0.36300000
H       -0.48240000       2.01940000       0.91740000
H       -0.44010000       1.95340000      -0.86120000
H        2.14610000       2.31910000      -0.42120000
H        3.17850000       0.53800000       1.05830000
H        1.78340000      -0.69430000       2.73910000
H        0.96920000       0.86310000       2.78720000
H        0.09370000      -1.69100000       1.41030000
H       -0.93570000      -0.36900000       1.97340000
H       -0.66900000      -0.49710000      -0.67280000
H        2.05160000      -0.49920000      -1.13530000
