18
Properties=species:S:1:pos:R:3 gdb_105933=T pbc="F F F"
O        0.05330000       1.32570000       0.50650000
C       -0.09270000       0.07420000      -0.15930000
C       -1.48970000      -0.45700000      -0.10790000
C       -2.00370000      -1.89320000      -0.11720000
C       -2.13300000      -1.07900000       1.13610000
N       -3.59080000      -0.78650000       0.97700000
C       -3.62680000       0.62490000       0.43640000
C       -2.78350000       0.11990000      -0.74950000
C       -3.38470000      -1.29690000      -0.46660000
H       -0.45990000       1.97760000       0.01900000
H        0.25820000       0.14480000      -1.20120000
H        0.58220000      -0.61900000       0.35610000
H       -1.51940000      -2.83880000      -0.31970000
H       -1.64230000      -1.16280000       2.09720000
H       -4.65520000       0.88010000       0.16280000
H       -3.20930000       1.38750000       1.10070000
H       -2.72850000       0.59510000      -1.73000000
H       -4.22170000      -1.76330000      -0.98240000
