18
Properties=species:S:1:pos:R:3 gdb_90906=T pbc="F F F"
C       -0.33540000       1.51190000      -0.05640000
C        0.01730000       0.03930000       0.00120000
N        1.12230000      -0.33990000      -1.02880000
C        2.10770000      -0.18570000       0.14100000
C        2.90340000      -0.91830000       1.31430000
O        1.97650000      -0.15490000       2.21610000
C        1.01310000      -0.49280000       1.08300000
C        1.00540000      -2.02910000       1.19180000
C        2.29810000      -2.31470000       1.34350000
H        0.54140000       2.14800000       0.08450000
H       -0.77420000       1.74960000      -1.02940000
H       -1.06490000       1.75660000       0.72230000
H       -0.88280000      -0.57700000      -0.10560000
H        0.99890000      -1.33100000      -1.24200000
H        2.41850000       0.85830000       0.14290000
H        3.95540000      -0.74550000       1.54120000
H        0.12970000      -2.66260000       1.16370000
H        2.81830000      -3.25160000       1.47630000
