21
Properties=species:S:1:pos:R:3 gdb_34851=T pbc="F F F"
C       -0.05930000      -1.16750000      -0.08960000
C       -0.02800000       0.03410000      -0.03200000
C        0.01660000       1.48070000       0.04470000
C       -0.11570000       2.06510000       1.49590000
C        1.43050000       1.93020000       1.61000000
C        1.46240000       2.09250000       0.06260000
C        1.37090000       3.57260000      -0.34300000
C        0.56040000       4.38130000       0.69880000
C       -0.53870000       3.53950000       1.39140000
H       -0.09210000      -2.22710000      -0.14630000
H       -0.66410000       1.91630000      -0.69640000
H       -0.73790000       1.50350000       2.19500000
H        1.97470000       2.65320000       2.22290000
H        1.71730000       0.91960000       1.90650000
H        2.22840000       1.55490000      -0.49930000
H        2.37440000       4.00290000      -0.43640000
H        0.91190000       3.63950000      -1.33740000
H        1.25260000       4.73890000       1.46780000
H        0.13170000       5.27920000       0.24390000
H       -1.48570000       3.59800000       0.84030000
H       -0.73590000       3.94900000       2.38860000
