16
Properties=species:S:1:pos:R:3 gdb_93330=T pbc="F F F"
O        0.23920000       1.17060000      -0.58620000
C        0.03790000      -0.08300000       0.01230000
C        0.32410000      -0.13130000       1.52320000
O       -0.45000000      -1.23920000       2.00450000
C       -1.47900000      -1.51070000       1.14370000
N       -2.30970000      -2.44600000       1.27670000
C       -1.44840000      -0.51180000      -0.01490000
C       -2.36190000       0.59860000       0.23350000
C       -3.12100000       1.50300000       0.45230000
H        1.18330000       1.29730000      -0.72110000
H        0.62080000      -0.86870000      -0.49010000
H        1.37130000      -0.31660000       1.77480000
H       -0.00920000       0.80050000       1.99440000
H       -2.12880000      -2.96980000       2.13520000
H       -1.71970000      -1.01850000      -0.94350000
H       -3.79570000       2.30190000       0.63720000
