21
Properties=species:S:1:pos:R:3 gdb_62822=T pbc="F F F"
C       -0.08860000       1.52010000       0.11600000
C        0.00720000      -0.00790000       0.04330000
C       -1.42150000      -0.54110000      -0.11580000
C        1.15820000      -0.65330000      -0.81850000
C        2.19290000      -0.16230000       0.23980000
C        1.00600000      -0.74440000       1.05420000
C        1.03550000      -1.94300000       0.04640000
C        0.86750000      -0.81800000       2.53360000
O        1.63600000      -0.31710000       3.31830000
H        0.86450000       2.03120000       0.24450000
H       -0.54740000       1.90360000      -0.80270000
H       -0.73730000       1.82040000       0.94620000
H       -1.86140000      -0.13910000      -1.03570000
H       -1.50710000      -1.62630000      -0.16340000
H       -2.05050000      -0.19680000       0.71260000
H        1.26070000      -0.60550000      -1.90450000
H        3.11840000      -0.73900000       0.29590000
H        2.40220000       0.90130000       0.31810000
H        0.14720000      -2.56210000      -0.05590000
H        1.93350000      -2.56260000       0.10190000
H       -0.03090000      -1.37550000       2.88940000
