15
Properties=species:S:1:pos:R:3 gdb_87037=T pbc="F F F"
N       -1.38990000       2.09900000       0.70860000
H       -1.21620000       2.32380000      -0.30700000
H       -0.62210000       2.57390000       1.27780000
H       -2.29470000       2.57850000       0.95880000
C       -1.36590000       0.16110000       1.22200000
C        0.04330000      -0.35800000       0.94650000
C       -0.59360000      -0.13140000       2.29760000
C       -0.46130000      -0.24830000       3.69240000
N       -0.33400000      -0.32600000       4.88820000
C        1.38510000       2.60010000       2.93440000
O        2.20730000       2.01910000       3.62770000
O        0.58830000       3.23540000       2.23900000
H       -2.37580000      -0.02760000       0.83400000
H        0.18240000      -1.38240000       0.55950000
H        0.79460000       0.34720000       0.54600000
