23
Properties=species:S:1:pos:R:3 gdb_114918=T pbc="F F F"
C       -0.07720000       1.61350000       0.16350000
C        0.01260000       0.08090000       0.01950000
C        0.82680000      -0.42840000      -1.20880000
C        0.79930000       0.45320000      -2.44740000
O        1.49660000      -0.23830000      -3.47710000
C        2.24600000      -0.72110000      -0.65810000
C        1.98400000      -0.94810000       0.80910000
C        0.77070000      -0.53930000       1.18680000
C        0.18380000      -0.60420000       2.56270000
H        0.91680000       2.07030000       0.21130000
H       -0.62250000       2.06640000      -0.67090000
H       -0.60820000       1.88400000       1.08180000
H       -1.01580000      -0.30270000      -0.02730000
H        0.39340000      -1.39220000      -1.50150000
H       -0.24330000       0.65460000      -2.74460000
H        1.27440000       1.42420000      -2.23760000
H        1.53650000       0.33390000      -4.24880000
H        2.70970000      -1.57770000      -1.15700000
H        2.92880000       0.12740000      -0.81770000
H        2.72130000      -1.38110000       1.47830000
H        0.87730000      -1.06270000       3.27320000
H       -0.07520000       0.39220000       2.94210000
H       -0.74550000      -1.18900000       2.56980000
