20
Properties=species:S:1:pos:R:3 gdb_58283=T pbc="F F F"
C        0.18280000       1.59490000       0.00160000
C        0.13270000       0.06840000      -0.05800000
N        0.75450000      -0.48600000       1.16040000
H       -1.26190000      -0.34910000       1.84870000
H        1.01700000      -1.45720000       1.01910000
H        1.60360000       0.01790000       1.39260000
C       -1.30420000      -0.49430000      -0.06650000
O       -1.93630000      -0.17070000       1.17210000
C       -2.20220000       0.01520000      -1.19130000
C       -3.56350000      -0.68360000      -1.28010000
O       -4.16040000      -0.95000000      -0.10440000
O       -4.08790000      -0.95790000      -2.32590000
H        1.21740000       1.94060000       0.09830000
H       -0.22570000       2.04000000      -0.90890000
H       -0.38850000       1.96550000       0.85660000
H        0.63340000      -0.27100000      -0.97850000
H       -1.22020000      -1.59170000      -0.15530000
H       -3.57260000      -0.68190000       0.62930000
H       -2.39010000       1.08500000      -1.04100000
H       -1.71640000      -0.10630000      -2.16170000
