13
Properties=species:S:1:pos:R:3 gdb_24503=T pbc="F F F"
N       -0.03070000       1.37030000       0.01010000
C        1.28960000       1.74770000      -0.00070000
N        2.13350000       0.74900000      -0.01430000
C        1.33140000      -0.37630000      -0.01270000
C       -0.03530000      -0.00840000       0.00260000
C       -0.99170000      -1.01150000       0.00640000
N       -0.59520000      -2.28300000      -0.00440000
C        0.72890000      -2.52650000      -0.01860000
N        1.72900000      -1.64880000      -0.02350000
H       -0.82700000       1.98530000       0.02120000
H        1.56750000       2.79280000       0.00230000
H       -2.06190000      -0.81620000       0.01780000
H        1.01040000      -3.57600000      -0.02700000
