22
Properties=species:S:1:pos:R:3 gdb_100922=T pbc="F F F"
C       -0.33220000       1.65660000       0.15970000
C       -0.11090000       0.14310000       0.15670000
N        0.67310000      -0.31010000      -1.00040000
C        2.07620000       0.06920000      -0.93380000
C        0.46550000      -1.70250000      -1.38100000
C        0.76480000      -2.81330000      -0.34950000
O       -0.17690000      -2.88310000       0.70200000
C       -0.94020000      -1.83100000      -1.95560000
O       -1.71540000      -2.72020000      -1.69420000
H        0.59930000       2.21280000       0.30140000
H       -0.78240000       1.98260000      -0.78270000
H       -1.00220000       1.93270000       0.97990000
H        0.34710000      -0.17250000       1.10860000
H       -1.08260000      -0.35830000       0.11900000
H        2.61840000      -0.37890000      -0.08140000
H        2.58480000      -0.23000000      -1.85570000
H        2.16760000       1.15470000      -0.84670000
H        1.12700000      -1.88460000      -2.24510000
H        0.83710000      -3.77140000      -0.88760000
H        1.74020000      -2.62690000       0.11150000
H       -1.00880000      -3.14750000       0.28900000
H       -1.21180000      -1.00880000      -2.65180000
