19
Properties=species:S:1:pos:R:3 gdb_90725=T pbc="F F F"
C       -0.40020000       1.21050000      -0.21330000
C        0.23880000      -0.15060000      -0.02960000
O        1.53650000      -0.22710000      -0.69920000
C        2.21930000      -0.47200000       0.54000000
C        0.90000000      -0.44010000       1.33560000
O        0.99810000      -1.84130000       1.65030000
C        2.25730000      -1.93440000       0.95840000
C        2.67430000      -3.14250000       0.19900000
C        3.38960000      -2.75120000       1.48720000
H        0.23790000       2.00230000       0.19220000
H       -0.55720000       1.41270000      -1.27700000
H       -1.37080000       1.24900000       0.29310000
H       -0.42340000      -0.95960000      -0.35930000
H        3.10970000       0.14510000       0.67230000
H        0.64740000       0.17870000       2.19800000
H        2.01120000      -3.99970000       0.24290000
H        3.17980000      -3.00400000      -0.75070000
H        4.39410000      -2.34460000       1.42550000
H        3.19250000      -3.35080000       2.36930000
