13
Properties=species:S:1:pos:R:3 gdb_43549=T pbc="F F F"
O        0.00490000       0.10020000      -0.75950000
C        0.04430000       1.15370000      -0.21860000
O       -0.97310000       1.82190000       0.43170000
C       -0.13930000       3.00990000       0.70690000
C       -0.06630000       3.35090000       2.10830000
C        0.02220000       3.65210000       3.26780000
C        1.04630000       2.25740000       0.07160000
C        2.46220000       2.18980000       0.42590000
O        2.00330000       2.77850000      -0.80150000
H       -0.48860000       3.84740000       0.09670000
H        0.08770000       3.91700000       4.29490000
H        2.84750000       2.88860000       1.16510000
H        2.99160000       1.24590000       0.31910000
