19
Properties=species:S:1:pos:R:3 gdb_107489=T pbc="F F F"
C       -0.14850000       1.37870000       0.04350000
O        0.03320000      -0.03550000      -0.00850000
C        0.66780000      -0.48830000      -1.13360000
C        1.60150000      -1.65610000      -1.04120000
C        2.12660000      -0.36850000      -1.63260000
C        1.63130000      -0.24490000      -3.08310000
C        0.18090000      -0.35280000      -2.56880000
C       -1.06560000      -0.79460000      -3.19560000
O       -0.79790000       0.59960000      -2.94970000
H        0.81770000       1.89870000      -0.00610000
H       -0.78780000       1.72840000      -0.77210000
H       -0.62230000       1.59330000       1.00370000
H        1.92520000      -1.85970000      -0.02550000
H        1.46810000      -2.54070000      -1.66100000
H        2.97040000       0.15840000      -1.20690000
H        1.80400000       0.74120000      -3.52130000
H        1.97080000      -1.01860000      -3.77950000
H       -1.07690000      -1.08090000      -4.24620000
H       -1.85320000      -1.23060000      -2.58280000
