16
Properties=species:S:1:pos:R:3 gdb_54007=T pbc="F F F"
N        0.17540000       1.10450000      -0.19750000
C        0.00310000      -0.18040000       0.16410000
O        0.89040000      -0.96600000       0.45450000
C       -1.46170000      -0.61770000       0.18790000
N       -1.59750000      -1.92950000       0.48740000
N       -2.36300000       0.25590000      -0.10600000
C       -3.74920000      -0.20820000      -0.16970000
C       -4.25560000      -0.43760000       1.24550000
O       -4.20810000      -1.51100000       1.80190000
H        1.10100000       1.49450000      -0.23290000
H       -0.64490000       1.65140000      -0.40940000
H       -0.73630000      -2.38900000       0.75060000
H       -2.47480000      -2.27810000       0.84680000
H       -4.35040000       0.56380000      -0.66000000
H       -3.84620000      -1.15080000      -0.72830000
H       -4.61750000       0.46360000       1.78330000
