16
Properties=species:S:1:pos:R:3 gdb_53084=T pbc="F F F"
C       -0.05920000       1.46980000      -0.00680000
C        0.00060000       0.01800000      -0.01640000
C        0.03800000      -1.18710000      -0.02290000
C        0.06290000      -2.59810000      -0.02820000
C        1.11310000      -3.42560000      -0.15660000
C        0.64030000      -4.84340000      -0.10170000
O       -0.77550000      -4.75100000       0.06970000
C       -1.15780000      -3.43330000       0.11810000
N       -2.34360000      -3.02240000       0.26220000
H        0.53500000       1.88560000       0.81460000
H        0.32950000       1.88880000      -0.94180000
H       -1.09000000       1.81910000       0.11450000
H        2.14900000      -3.14340000      -0.28140000
H        0.85600000      -5.40390000      -1.02190000
H        1.06900000      -5.40680000       0.73870000
H       -2.98850000      -3.81030000       0.33890000
