14
Properties=species:S:1:pos:R:3 gdb_20587=T pbc="F F F"
C       -0.00160000       1.51230000       0.08380000
C        0.01120000       0.02510000      -0.05570000
C       -0.01620000      -0.81420000      -1.17000000
C       -0.10040000      -0.44120000      -2.57330000
O       -0.11170000      -1.22830000      -3.49590000
C        0.05020000      -2.12920000      -0.63200000
N        0.11250000      -2.12130000       0.68620000
N        0.08830000      -0.80110000       1.00880000
H        1.00780000       1.90810000       0.24520000
H       -0.40130000       1.98230000      -0.81640000
H       -0.62140000       1.82610000       0.92980000
H       -0.15730000       0.65450000      -2.76550000
H        0.04920000      -3.05970000      -1.17890000
H        0.12220000      -0.54140000       1.98140000
