22
Properties=species:S:1:pos:R:3 gdb_87825=T pbc="F F F"
C       -0.07000000       1.56020000       0.04290000
C       -0.02490000       0.04790000       0.04060000
C        1.27650000      -0.68330000      -0.21510000
C        0.65530000      -0.70480000       1.15030000
C        1.29210000      -0.20510000       2.45180000
N        0.87130000      -1.45360000       3.18530000
C       -0.60380000      -1.48710000       3.08770000
C        0.17860000      -1.92750000       1.91150000
C        0.24410000      -3.34450000       1.42520000
H        0.84200000       1.98210000       0.47850000
H       -0.16300000       1.95560000      -0.97460000
H       -0.91880000       1.93620000       0.62520000
H       -0.91330000      -0.42940000      -0.36860000
H        1.25040000      -1.59080000      -0.81030000
H        2.17640000      -0.08950000      -0.35220000
H        2.38280000      -0.14110000       2.41970000
H        0.89090000       0.71520000       2.89260000
H       -1.04910000      -2.25340000       3.71600000
H       -1.15230000      -0.54710000       3.06040000
H       -0.54290000      -3.54510000       0.68810000
H        1.21010000      -3.55720000       0.95540000
H        0.11000000      -4.04100000       2.25770000
