15
Properties=species:S:1:pos:R:3 gdb_117620=T pbc="F F F"
O        0.31900000       0.30720000      -0.80190000
C       -0.24280000       0.30180000       0.51560000
C       -1.58590000      -0.41690000       0.45510000
C       -1.46920000      -1.89170000      -0.03130000
O       -1.03200000      -1.98210000      -1.36280000
C       -0.54720000      -2.63740000       0.87440000
N        0.21490000      -3.16340000       1.56490000
C       -2.80640000      -2.52320000       0.04650000
N       -3.86530000      -2.97490000       0.12610000
H        1.25060000       0.54030000      -0.74660000
H        0.42680000      -0.20510000       1.22200000
H       -0.40130000       1.32860000       0.87040000
H       -2.04950000      -0.39530000       1.44520000
H       -2.25440000       0.09040000      -0.24670000
H       -0.36790000      -1.27740000      -1.47500000
