23
Properties=species:S:1:pos:R:3 gdb_89180=T pbc="F F F"
C       -0.05520000       1.51890000      -0.00520000
C        0.02720000      -0.00220000       0.04840000
C        1.10890000      -0.62250000      -0.90110000
C        1.85350000      -1.15760000       0.32800000
O        3.23540000      -1.08520000       0.45100000
C        0.80410000      -0.54800000       1.25690000
C        1.00110000      -2.05660000       1.19650000
C       -0.04440000      -3.01210000       0.64770000
C        1.73180000      -2.61570000       2.40950000
H        0.93470000       1.96990000       0.12610000
H       -0.45540000       1.85780000      -0.96720000
H       -0.70630000       1.90770000       0.78600000
H       -0.97550000      -0.42720000      -0.07310000
H        0.77910000      -1.34900000      -1.65150000
H        1.69190000       0.15680000      -1.39910000
H        3.60990000      -1.93070000       0.17980000
H        0.94210000      -0.01290000       2.19090000
H       -0.55310000      -2.63040000      -0.23980000
H        0.41390000      -3.97110000       0.37720000
H       -0.81110000      -3.22020000       1.40350000
H        1.02390000      -2.83400000       3.21700000
H        2.24330000      -3.55450000       2.16260000
H        2.48230000      -1.91810000       2.78700000
