17
Properties=species:S:1:pos:R:3 gdb_94486=T pbc="F F F"
O        0.17190000       1.39670000       0.09230000
C        0.00260000       0.00500000       0.06940000
C       -1.47520000      -0.48220000      -0.05080000
N       -1.05110000      -1.23720000      -1.24740000
C        0.19920000      -0.64970000      -1.29750000
N        1.14830000      -0.54850000      -2.12600000
C        0.99860000      -1.16070000      -3.43130000
C        2.03770000      -0.60850000      -4.39630000
O        1.96810000      -0.71010000      -5.59250000
H        0.90210000       1.59440000      -0.50680000
H        0.55370000      -0.48850000       0.88050000
H       -1.86450000      -1.10650000       0.75730000
H       -2.15390000       0.35030000      -0.25700000
H       -1.62460000      -1.55280000      -2.01590000
H        1.16650000      -2.24990000      -3.38010000
H        0.00460000      -1.02380000      -3.88610000
H        2.88880000      -0.10350000      -3.88750000
