19
Properties=species:S:1:pos:R:3 gdb_84660=T pbc="F F F"
O        0.10740000       1.29290000      -0.34070000
C        0.04090000      -0.13080000      -0.08500000
C        0.84900000      -0.50690000       1.12450000
C        0.29550000      -0.67940000       2.32940000
C       -1.15680000      -0.55700000       2.58920000
C       -1.85790000       0.76280000       2.27250000
C       -2.06480000      -0.42960000       1.38540000
C       -1.44400000      -0.56180000       0.00350000
O       -2.19680000       0.11700000      -0.98440000
H        0.40340000       1.71840000       0.46950000
H        0.46100000      -0.59340000      -0.98500000
H        1.92480000      -0.58590000       0.99670000
H        0.92880000      -0.91790000       3.18060000
H       -1.52620000      -1.09720000       3.45460000
H       -2.67770000       1.06150000       2.91700000
H       -1.24540000       1.58470000       1.92260000
H       -3.03840000      -0.90460000       1.45820000
H       -1.48070000      -1.62590000      -0.26300000
H       -1.85040000       1.02020000      -0.98690000
