21
Properties=species:S:1:pos:R:3 gdb_118514=T pbc="F F F"
O       -0.18300000       1.33050000      -0.49970000
C       -0.00200000      -0.05080000      -0.22860000
C       -1.37060000      -0.62970000       0.11400000
C       -1.35910000      -2.14050000       0.40570000
C       -0.76590000      -2.48480000       1.78740000
O       -0.47510000      -3.85930000       1.92360000
C       -2.77360000      -2.68150000       0.30680000
C       -3.21950000      -3.56260000      -0.77900000
O       -2.95130000      -4.09410000       0.52410000
H        0.67800000       1.71670000      -0.68450000
H        0.41190000      -0.57920000      -1.10320000
H        0.70160000      -0.20140000       0.60410000
H       -1.77850000      -0.08270000       0.97350000
H       -2.03950000      -0.41920000      -0.72930000
H       -0.73940000      -2.65510000      -0.34040000
H        0.17940000      -1.95290000       1.93730000
H       -1.45880000      -2.13190000       2.57240000
H       -1.25120000      -4.34360000       1.61340000
H       -3.53150000      -2.07810000       0.81060000
H       -4.26730000      -3.58250000      -1.07260000
H       -2.51210000      -3.85220000      -1.55430000
