19
Properties=species:S:1:pos:R:3 gdb_76813=T pbc="F F F"
C       -0.00950000       1.56910000       0.16410000
C        0.07050000       0.05950000       0.02980000
C        1.19560000      -0.59650000      -0.94850000
O        2.33240000       0.18730000      -1.20390000
C        1.34740000      -1.75960000       0.11010000
C        2.04930000      -1.94410000       1.49550000
C        2.19060000      -0.43460000       1.65580000
C        0.77210000      -0.78230000       1.10590000
O        0.67390000      -1.84970000       2.15250000
H        0.97160000       1.99270000       0.39810000
H       -0.36730000       2.02980000      -0.76440000
H       -0.70210000       1.85710000       0.96120000
H       -0.89530000      -0.37670000      -0.24410000
H        0.76530000      -0.97360000      -1.88480000
H        2.07810000       0.90230000      -1.79700000
H        0.68020000      -2.58530000      -0.14040000
H        2.66920000      -2.76380000       1.86750000
H        2.19850000      -0.08270000       2.68750000
H        2.88090000       0.09110000       0.99970000
