21
Properties=species:S:1:pos:R:3 gdb_119953=T pbc="F F F"
C       -0.20260000       1.54070000       0.06740000
C       -0.18680000       0.02110000      -0.11480000
C        0.87420000      -0.44530000      -1.12240000
C        0.89110000      -1.95600000      -1.26100000
C        0.05170000      -2.65880000      -2.26350000
O       -0.72190000      -1.85440000      -3.09950000
C        1.58000000      -2.68850000      -2.43060000
C        2.22310000      -1.94760000      -3.53550000
O        3.23240000      -2.31820000      -4.09040000
H        0.76530000       1.90760000       0.42690000
H       -0.41810000       2.04970000      -0.87840000
H       -0.96430000       1.84710000       0.79100000
H       -0.00640000      -0.46410000       0.85370000
H       -1.17120000      -0.32310000      -0.45360000
H        0.67310000       0.02330000      -2.08950000
H        1.86500000      -0.09930000      -0.80090000
H        1.00940000      -2.47870000      -0.31480000
H       -0.40810000      -3.60610000      -1.98340000
H       -0.84120000      -2.31090000      -3.93900000
H        2.08260000      -3.62030000      -2.19310000
H        1.71160000      -1.01510000      -3.85120000
