20
Properties=species:S:1:pos:R:3 gdb_88648=T pbc="F F F"
C        2.88030000      -0.74930000       0.30750000
N        1.52640000      -1.25600000       0.47570000
C        1.30240000      -2.28070000       1.48750000
C        0.74910000      -0.90540000       1.66470000
C        1.24440000       0.00760000       2.75650000
C        1.00990000       1.54410000       2.56690000
C        0.43030000       1.57680000       3.98970000
O        0.18860000       2.45150000       4.76840000
C        0.38490000       0.04200000       4.06390000
H        3.49010000      -0.74430000       1.22450000
H        3.39490000      -1.37450000      -0.42910000
H        2.84120000       0.27170000      -0.08560000
H        0.66330000      -3.11200000       1.20050000
H        2.14210000      -2.55580000       2.12690000
H       -0.30870000      -0.75580000       1.43830000
H        2.28930000      -0.19550000       2.99830000
H        1.87440000       2.18440000       2.37550000
H        0.24050000       1.76490000       1.81760000
H       -0.63410000      -0.33290000       3.91020000
H        0.79120000      -0.41910000       4.96730000
