21
Properties=species:S:1:pos:R:3 gdb_13728=T pbc="F F F"
C        0.01710000       1.32100000       0.15010000
O       -0.02410000      -0.03100000      -0.23560000
C       -1.24360000      -0.65900000       0.09220000
C       -1.17640000      -2.11220000      -0.36790000
C       -2.47880000      -2.85350000      -0.14460000
C       -2.51010000      -4.33770000      -0.00330000
N       -2.86150000      -3.48380000       1.12450000
C       -1.95140000      -3.46330000       2.25900000
H        0.99270000       1.71680000      -0.14260000
H       -0.76940000       1.91280000      -0.34530000
H       -0.10230000       1.44060000       1.23900000
H       -1.42600000      -0.60250000       1.17910000
H       -2.08780000      -0.14310000      -0.39900000
H       -0.94360000      -2.12150000      -1.43970000
H       -0.34060000      -2.60910000       0.13310000
H       -3.33090000      -2.38400000      -0.63770000
H       -3.31660000      -4.92720000      -0.43260000
H       -1.54520000      -4.84500000       0.02510000
H       -0.88660000      -3.57610000       2.00190000
H       -2.07430000      -2.52470000       2.80970000
H       -2.21870000      -4.28440000       2.93220000
