22
Properties=species:S:1:pos:R:3 gdb_55678=T pbc="F F F"
C       -2.52040000       0.80670000      -1.89030000
C       -2.20330000      -0.64710000      -1.67280000
N       -2.64250000      -1.54430000      -2.45700000
O       -1.43250000      -0.78180000      -0.55820000
C       -0.92450000      -2.05930000      -0.15310000
C        0.21750000      -2.49600000      -1.06630000
C       -0.53440000      -2.02950000       1.34600000
C       -1.22660000      -3.40710000       1.52680000
C       -1.96750000      -3.17180000       0.18370000
H       -3.15480000       0.91530000      -2.76870000
H       -3.02790000       1.21840000      -1.01230000
H       -1.59720000       1.37870000      -2.02660000
H       -2.35470000      -2.47990000      -2.17940000
H        1.00200000      -1.73310000      -1.06780000
H        0.65340000      -3.43450000      -0.71040000
H       -0.11710000      -2.64460000      -2.09610000
H        0.53010000      -1.94950000       1.57920000
H       -1.07450000      -1.22890000       1.85610000
H       -0.52100000      -4.23970000       1.47250000
H       -1.84540000      -3.53800000       2.41590000
H       -2.95990000      -2.74110000       0.33390000
H       -2.04740000      -4.01630000      -0.50610000
