17
Properties=species:S:1:pos:R:3 gdb_36011=T pbc="F F F"
C        0.05440000      -1.21220000      -0.10650000
C        0.04390000      -0.01680000       0.01560000
C        0.02180000       1.43440000       0.13720000
C        1.43510000       2.07160000       0.05740000
C        1.30710000       3.53310000      -0.06690000
N        1.20010000       4.67700000      -0.18500000
N        2.20570000       1.76310000       1.25790000
C        3.04800000       0.56710000       1.19350000
C        3.65720000       1.92220000       1.15110000
H        0.05360000      -2.26970000      -0.20530000
H       -0.59950000       1.86150000      -0.65800000
H       -0.42430000       1.73250000       1.09180000
H        1.92740000       1.71080000      -0.86320000
H        3.07430000      -0.02520000       2.10240000
H        3.03960000      -0.01130000       0.27340000
H        4.06480000       2.25820000       0.19950000
H        4.13990000       2.34420000       2.02650000
