18
Properties=species:S:1:pos:R:3 gdb_47492=T pbc="F F F"
O       -0.02560000      -0.00320000      -0.39760000
C       -0.03150000       1.11370000       0.04260000
C       -1.31510000       1.93810000       0.14410000
C       -1.23910000       3.13060000       1.07300000
C       -2.47800000       3.79060000       1.54020000
N       -1.66040000       2.99310000       2.47900000
C        0.06110000       3.87950000       0.88290000
C        1.20090000       2.91050000       1.16400000
O        1.13950000       1.70300000       0.37750000
H       -1.52010000       2.27920000      -0.88000000
H       -2.12510000       1.25210000       0.40660000
H       -2.48630000       4.85980000       1.73530000
H       -3.43080000       3.38570000       1.20720000
H       -2.09910000       2.08800000       2.63270000
H        0.13200000       4.27000000      -0.13960000
H        0.12940000       4.72110000       1.57750000
H        2.17580000       3.34600000       0.93490000
H        1.18670000       2.62610000       2.22250000
