18
Properties=species:S:1:pos:R:3 gdb_72075=T pbc="F F F"
C       -0.02180000       1.47200000       0.03200000
C        0.01620000      -0.02900000      -0.02650000
C        0.25770000      -0.79480000      -1.33590000
C        0.23030000      -2.20800000      -0.71960000
N        1.21420000      -2.05620000       0.38120000
C        0.60570000      -0.89310000       1.03860000
C       -0.91650000      -0.91160000       0.83760000
C       -1.13890000      -2.14370000       0.01610000
O       -2.08860000      -2.87590000      -0.06570000
H        0.91190000       1.89720000      -0.35400000
H       -0.84520000       1.87220000      -0.56950000
H       -0.15350000       1.83010000       1.05780000
H       -0.53380000      -0.64390000      -2.07620000
H        1.22810000      -0.55460000      -1.78000000
H        0.39990000      -3.06660000      -1.36370000
H        1.16860000      -2.86930000       0.99430000
H        1.06650000      -0.50580000       1.93770000
H       -1.63380000      -0.51040000       1.53860000
