17
Properties=species:S:1:pos:R:3 gdb_120126=T pbc="F F F"
C       -0.05900000       1.34170000       0.19290000
O       -0.10480000      -0.06620000       0.23770000
C       -1.35560000      -0.58380000      -0.15840000
C       -1.26560000      -2.08720000      -0.08370000
C       -1.57530000      -2.88950000       1.12480000
O       -2.62890000      -2.25760000       1.90070000
C       -3.52670000      -2.45870000       0.85370000
O       -4.69530000      -2.25460000       0.85990000
C       -2.48510000      -3.02680000      -0.07610000
H        0.94020000       1.64490000       0.51370000
H       -0.23810000       1.72360000      -0.82470000
H       -0.80290000       1.79540000       0.86590000
H       -2.15910000      -0.20900000       0.49240000
H       -1.59490000      -0.27670000      -1.19050000
H       -0.45180000      -2.50190000      -0.67560000
H       -0.95200000      -3.60810000       1.63690000
H       -2.62980000      -3.81800000      -0.79680000
