17
Properties=species:S:1:pos:R:3 gdb_6339=T pbc="F F F"
C        0.05390000       1.60120000      -0.14120000
C        0.09560000       0.09180000       0.08020000
C        0.78620000      -0.31700000       1.36710000
N        1.27900000       0.53620000       2.16260000
N        0.80160000      -1.72300000       1.52850000
C        1.33280000      -2.42090000       2.60280000
N        1.18620000      -3.79410000       2.49160000
O        1.84300000      -1.89610000       3.57410000
H        1.06340000       2.01630000      -0.17470000
H       -0.45460000       1.83320000      -1.08170000
H       -0.47270000       2.09880000       0.67590000
H       -0.92430000      -0.32000000       0.09010000
H        0.60580000      -0.40370000      -0.75840000
H        1.69140000       0.07310000       2.97350000
H        0.30000000      -2.25470000       0.83440000
H        1.17830000      -4.21200000       1.57370000
H        1.72660000      -4.30020000       3.17670000
