13
Properties=species:S:1:pos:R:3 gdb_129539=T pbc="F F F"
N       -0.05570000       1.23580000       0.29110000
C       -0.44160000       0.06040000      -0.26090000
O       -0.77220000      -0.11710000      -1.40430000
O       -0.40800000      -0.90210000       0.72610000
C       -0.77070000      -2.18460000       0.46720000
N       -0.59890000      -3.02990000       1.45620000
O       -1.04940000      -4.24700000       0.96190000
C       -1.47100000      -4.08070000      -0.29940000
C       -1.32870000      -2.79170000      -0.69540000
H        0.07570000       2.01910000      -0.32320000
H        0.31060000       1.26500000       1.22620000
H       -1.84610000      -4.96540000      -0.79040000
H       -1.56350000      -2.33220000      -1.63530000
