18
Properties=species:S:1:pos:R:3 gdb_22217=T pbc="F F F"
C       -1.34180000       0.96410000       0.37080000
C       -0.12980000       0.18010000      -0.05020000
N        0.85490000      -0.11100000       0.70920000
O        0.68100000       0.37600000       2.01050000
C       -0.05740000      -0.28870000      -1.49390000
O       -0.16000000       0.83000000      -2.36850000
C        1.17500000      -1.16140000      -1.80280000
C        1.17690000      -1.65580000      -3.17320000
C        1.17280000      -2.07430000      -4.29950000
H       -1.05490000       1.80220000       1.01020000
H       -1.87510000       1.33560000      -0.50490000
H       -2.01730000       0.33190000       0.95910000
H        1.49540000       0.09830000       2.44340000
H       -0.95990000      -0.87550000      -1.70640000
H        0.63020000       1.36910000      -2.24600000
H        2.08340000      -0.57980000      -1.60360000
H        1.20320000      -1.99780000      -1.09640000
H        1.17120000      -2.44070000      -5.29590000
