21
Properties=species:S:1:pos:R:3 gdb_108256=T pbc="F F F"
C       -0.11300000       1.62590000       0.09730000
C       -0.03400000       0.09550000       0.18600000
C       -1.37480000      -0.55430000      -0.04110000
C       -2.02150000      -0.59460000      -1.43910000
O       -2.39760000      -1.98410000      -1.26600000
C       -1.76380000      -2.05920000       0.03170000
C       -0.88060000      -3.26570000       0.19130000
C       -2.72280000      -1.61760000       1.15270000
O       -2.34950000      -0.22760000       0.97880000
H        0.85970000       2.08070000       0.30500000
H       -0.42780000       1.95160000      -0.89990000
H       -0.83500000       2.01290000       0.82140000
H        0.67820000      -0.29240000      -0.55280000
H        0.33630000      -0.19900000       1.17490000
H       -2.88540000       0.06570000      -1.56750000
H       -1.32940000      -0.47470000      -2.28320000
H       -0.13330000      -3.30990000      -0.60590000
H       -0.36700000      -3.25340000       1.15750000
H       -1.48290000      -4.17980000       0.13730000
H       -3.78290000      -1.80200000       0.94880000
H       -2.46770000      -1.97370000       2.15940000
