14
Properties=species:S:1:pos:R:3 gdb_44984=T pbc="F F F"
O        0.01370000       0.08550000      -0.42900000
C       -0.05070000       1.20380000      -0.02620000
C       -1.30640000       2.03990000       0.24810000
C       -0.78330000       3.33950000       0.83270000
C        0.04500000       3.23150000       2.11580000
C        0.73630000       3.20060000       0.79520000
O        1.07050000       1.94060000       0.27520000
C       -1.43440000       4.57590000       0.51840000
N       -1.96380000       5.57330000       0.26700000
H       -1.83650000       2.20090000      -0.69440000
H       -1.97330000       1.48470000       0.91220000
H        0.13520000       4.13490000       2.70720000
H       -0.02490000       2.30790000       2.68110000
H        1.39490000       3.99100000       0.46110000
