16
Properties=species:S:1:pos:R:3 gdb_127953=T pbc="F F F"
C        0.01250000       1.43800000       0.12030000
N        0.05870000      -0.00920000       0.19790000
C       -1.02380000      -0.65950000       0.06970000
N       -2.29420000      -0.07780000      -0.14660000
N       -3.44900000      -0.73610000      -0.28510000
N       -3.43920000      -2.00110000      -0.22170000
C       -2.19280000      -2.63550000      -0.00650000
C       -2.29080000      -4.12630000       0.05190000
N       -1.05540000      -2.04740000       0.13290000
H        1.02120000       1.83620000       0.25000000
H       -0.35730000       1.80230000      -0.85270000
H       -0.61740000       1.88830000       0.90560000
H       -2.40100000       0.92300000      -0.21140000
H       -2.97530000      -4.42280000       0.85380000
H       -2.71890000      -4.50770000      -0.88120000
H       -1.30730000      -4.56370000       0.21860000
