21
Properties=species:S:1:pos:R:3 gdb_69590=T pbc="F F F"
C        0.16410000       1.55600000       0.24320000
C        0.15090000       0.06740000       0.04860000
C       -0.96390000      -0.81270000       0.56110000
C        0.45560000      -0.96630000       1.09940000
C        1.33110000      -1.97840000       0.41580000
C        2.66590000      -2.36120000       1.00080000
C        1.55310000      -3.38210000       0.90490000
C        1.16680000      -1.67490000      -1.07540000
O        0.76270000      -0.31090000      -1.16780000
H        1.18940000       1.93870000       0.21830000
H       -0.40360000       2.05420000      -0.54970000
H       -0.28580000       1.82330000       1.20320000
H       -1.69270000      -0.35450000       1.22160000
H       -1.36900000      -1.58950000      -0.07880000
H        0.66840000      -0.69670000       2.12800000
H        3.51060000      -2.46060000       0.32640000
H        2.92450000      -1.97880000       1.98320000
H        1.05870000      -3.69060000       1.81990000
H        1.64940000      -4.17250000       0.16610000
H        2.09010000      -1.79810000      -1.65050000
H        0.40160000      -2.32810000      -1.52210000
