17
Properties=species:S:1:pos:R:3 gdb_36253=T pbc="F F F"
C       -0.00920000      -1.20980000      -0.25330000
C       -0.03910000      -0.03200000      -0.01490000
C       -0.03530000       1.39900000       0.26860000
C        1.36490000       2.01580000       0.16020000
C        1.96720000       2.24800000      -1.24320000
C        1.17800000       3.58370000      -1.44820000
O        2.35460000       4.36980000      -1.79510000
C        2.80500000       3.46570000      -0.74400000
C        1.48650000       3.55510000       0.08580000
H        0.00300000      -2.25090000      -0.46140000
H       -0.72270000       1.90960000      -0.41840000
H       -0.43150000       1.57230000       1.27800000
H        2.04520000       1.53440000       0.87040000
H        2.24980000       1.52950000      -2.01150000
H        0.24850000       3.78290000      -1.97990000
H        3.84210000       3.51320000      -0.41370000
H        1.22730000       4.31840000       0.81980000
