18
Properties=species:S:1:pos:R:3 gdb_32686=T pbc="F F F"
O        0.01810000       1.44540000       0.21420000
C       -0.01330000       0.11090000      -0.25370000
C       -1.39520000      -0.51630000      -0.07230000
C       -1.45270000      -2.09410000      -0.15870000
N       -1.80810000      -2.07440000       1.26940000
C       -2.24300000      -2.67000000       2.41940000
C       -2.52670000      -1.62520000       3.28720000
C       -2.28380000      -0.37480000       2.63060000
C       -1.83670000      -0.71780000       1.37330000
H       -0.16370000       1.41520000       1.16060000
H        0.25140000       0.15290000      -1.31610000
H        0.73940000      -0.51310000       0.25440000
H       -2.12360000      -0.01050000      -0.71280000
H       -2.24010000      -2.49390000      -0.80350000
H       -0.50430000      -2.59480000      -0.37760000
H       -2.30110000      -3.73800000       2.55010000
H       -2.86910000      -1.74460000       4.30470000
H       -2.44130000       0.60870000       3.04490000
