18
Properties=species:S:1:pos:R:3 gdb_9374=T pbc="F F F"
C        0.03560000       1.42850000      -0.27600000
C        0.04690000      -0.08190000       0.04100000
N        0.76770000      -0.47620000       1.25130000
C        2.21890000      -0.27370000       1.22520000
C        2.84250000      -1.11020000       2.34350000
O        2.51010000      -2.47230000       2.20920000
C       -1.33530000      -0.58430000       0.13480000
N       -2.42840000      -0.94940000       0.21330000
H        1.05860000       1.79110000      -0.40260000
H       -0.51820000       1.62810000      -1.19740000
H       -0.43810000       1.98800000       0.53630000
H        0.52140000      -0.61040000      -0.79600000
H        0.35890000      -0.01460000       2.05900000
H        2.58820000      -0.64370000       0.26140000
H        2.52820000       0.77960000       1.32070000
H        3.93380000      -1.02790000       2.30480000
H        2.52000000      -0.70720000       3.32070000
H        1.56860000      -2.48180000       1.98760000
