15
Properties=species:S:1:pos:R:3 gdb_128345=T pbc="F F F"
C        0.08620000       1.41270000       0.14060000
N       -0.01850000       0.01100000      -0.22710000
C       -1.21330000      -0.65260000      -0.08240000
N       -1.23980000      -1.96480000       0.07750000
O       -2.58770000      -2.31600000       0.11870000
C       -3.33580000      -1.19920000       0.00010000
C       -2.52970000      -0.10580000      -0.12850000
C       -4.73780000      -1.33760000       0.02450000
C       -5.93570000      -1.44980000       0.04480000
H        1.10450000       1.75190000      -0.06120000
H       -0.58710000       2.01480000      -0.47740000
H       -0.14560000       1.61190000       1.19750000
H        0.77440000      -0.56120000       0.02620000
H       -2.83590000       0.91910000      -0.24380000
H       -6.99290000      -1.55170000       0.06260000
