18
Properties=species:S:1:pos:R:3 gdb_78653=T pbc="F F F"
C       -0.09350000       1.45740000       0.00870000
C        0.03550000      -0.06140000       0.06850000
C        0.87050000      -0.64050000      -1.07190000
N        2.15030000      -0.55330000      -0.31610000
C        1.20860000      -0.56910000       0.94310000
C        1.19590000      -2.08810000       0.79200000
O        1.18590000      -3.01880000       1.54740000
C        1.53160000      -1.92500000      -0.65710000
C        2.15170000      -2.91300000      -1.59100000
H        0.87790000       1.92950000      -0.16670000
H       -0.76870000       1.75690000      -0.80020000
H       -0.50060000       1.84880000       0.94630000
H       -0.93870000      -0.52380000       0.26470000
H        0.82700000      -0.37520000      -2.12490000
H        1.51470000      -0.08160000       1.86590000
H        1.39850000      -3.61770000      -1.95810000
H        2.59600000      -2.40700000      -2.45280000
H        2.93310000      -3.48470000      -1.08270000
