16
Properties=species:S:1:pos:R:3 gdb_1273=T pbc="F F F"
C       -0.11500000       1.47250000      -0.00350000
C       -0.00120000      -0.03630000       0.15890000
O        0.88980000      -0.54980000       0.81340000
N       -0.95980000      -0.76020000      -0.48800000
C       -1.03400000      -2.20580000      -0.42300000
C       -2.42420000      -2.66130000      -0.00570000
O       -3.33820000      -2.14220000      -0.96680000
H        0.77680000       1.83890000      -0.51960000
H       -1.00100000       1.79040000      -0.55930000
H       -0.12870000       1.93160000       0.98810000
H       -1.70200000      -0.29310000      -0.98210000
H       -0.79340000      -2.64680000      -1.39950000
H       -0.28220000      -2.53590000       0.29680000
H       -2.45610000      -3.76090000       0.02560000
H       -2.65010000      -2.28180000       1.00170000
H       -4.23340000      -2.32130000      -0.66610000
