17
Properties=species:S:1:pos:R:3 gdb_75411=T pbc="F F F"
C        0.03330000       1.50580000       0.03980000
C       -0.02760000       0.00400000       0.01370000
C       -1.17480000      -0.69430000      -0.06380000
C       -1.28340000      -2.19080000      -0.09430000
C        0.02330000      -2.87670000      -0.52650000
C        1.23240000      -2.25530000       0.14070000
O        2.13200000      -2.88480000       0.63530000
C        1.26930000      -0.70450000       0.13290000
O        2.32580000      -0.12220000       0.25160000
H        0.62730000       1.88340000      -0.79890000
H       -0.96550000       1.94580000      -0.00870000
H        0.53400000       1.85540000       0.94840000
H       -2.11520000      -0.14630000      -0.09730000
H       -1.58010000      -2.54730000       0.90310000
H       -2.10110000      -2.48580000      -0.76140000
H        0.01650000      -3.95200000      -0.33470000
H        0.15180000      -2.72870000      -1.60850000
