19
Properties=species:S:1:pos:R:3 gdb_102996=T pbc="F F F"
C        0.05420000       1.47950000       0.39160000
C       -0.02710000       0.06070000      -0.18220000
C       -1.43010000      -0.52920000      -0.07190000
C       -2.44230000       0.15660000      -0.83110000
N       -3.26220000       0.70640000      -1.43640000
C       -1.66830000      -2.04330000       0.07850000
N       -0.50390000      -2.88650000       0.19550000
C       -1.89690000      -1.14380000       1.26350000
O       -1.00110000      -1.21120000       2.31280000
H        1.06470000       1.88270000       0.27740000
H       -0.63810000       2.15520000      -0.11980000
H       -0.19520000       1.47360000       1.45620000
H        0.27680000       0.06070000      -1.23570000
H        0.66870000      -0.59220000       0.34780000
H       -2.54010000      -2.43000000      -0.44620000
H       -0.78150000      -3.83100000       0.44240000
H        0.01150000      -2.94000000      -0.67680000
H       -2.91050000      -0.92820000       1.58360000
H       -0.34110000      -1.87390000       2.04800000
