18
Properties=species:S:1:pos:R:3 gdb_99799=T pbc="F F F"
C       -0.05800000       1.56120000      -0.10980000
C       -0.02930000       0.03400000      -0.04460000
C        0.76520000      -0.52070000       1.16330000
O        2.08500000       0.00140000       1.05350000
C        0.15050000      -0.04300000       2.43490000
N       -0.30940000       0.33900000       3.42380000
C        0.76120000      -1.98910000       1.16630000
C        0.78030000      -3.19260000       1.15760000
C        0.79670000      -4.64720000       1.15200000
H        0.95360000       1.96850000      -0.16740000
H       -0.61150000       1.88600000      -0.99530000
H       -0.54950000       1.98810000       0.76970000
H       -1.04200000      -0.37660000       0.00590000
H        0.45060000      -0.38480000      -0.93430000
H        2.63090000      -0.42510000       1.72400000
H        1.58110000      -5.03550000       1.81010000
H       -0.16040000      -5.04900000       1.50090000
H        0.97820000      -5.03750000       0.14510000
