11
Properties=species:S:1:pos:R:3 gdb_130847=T pbc="F F F"
O       -0.03690000      -0.09020000      -0.00160000
C       -0.03490000       1.11460000       0.00920000
C        1.18670000       1.93850000       0.00250000
C        1.34450000       3.30360000       0.01300000
N        2.71350000       3.53290000      -0.00050000
N        3.33610000       2.44290000      -0.01790000
O        2.39420000       1.37790000      -0.01670000
C        0.38230000       4.33010000       0.03350000
C       -0.44180000       5.20620000       0.05110000
H       -0.96220000       1.71940000       0.02560000
H       -1.16740000       5.98280000       0.06700000
