22
Properties=species:S:1:pos:R:3 gdb_8313=T pbc="F F F"
C       -0.04090000       1.51160000       0.07540000
C        0.27620000       0.02890000      -0.02400000
O        0.37670000      -0.49780000       1.28540000
C        0.63840000      -1.87430000       1.32140000
C        2.07770000      -2.38380000       1.01880000
C        1.92750000      -3.35520000       2.22600000
C        3.12430000      -3.59140000       3.13380000
C        0.75930000      -2.46340000       2.73870000
H        0.74990000       2.03670000       0.61870000
H       -0.12900000       1.95240000      -0.92220000
H       -0.98270000       1.66660000       0.60950000
H       -0.51430000      -0.49980000      -0.58400000
H        1.21820000      -0.12740000      -0.57430000
H       -0.10380000      -2.41990000       0.71640000
H        2.29130000      -2.80870000       0.03480000
H        2.80470000      -1.59400000       1.23720000
H        1.53290000      -4.31640000       1.87790000
H        3.53520000      -2.64180000       3.49490000
H        2.84780000      -4.18940000       4.00970000
H        3.92550000      -4.12320000       2.60800000
H        1.12350000      -1.69190000       3.42450000
H       -0.11850000      -2.94510000       3.17550000
