15
Properties=species:S:1:pos:R:3 gdb_132053=T pbc="F F F"
C       -0.03910000       1.52910000       0.01570000
C       -0.02800000       0.03150000      -0.00240000
C       -0.12240000      -0.71600000      -1.13160000
F       -0.23300000      -0.11780000      -2.31390000
N       -0.11910000      -2.07610000      -1.22310000
C       -0.01330000      -2.69870000      -0.09650000
N        0.08870000      -2.08110000       1.10550000
C        0.09100000      -0.67480000       1.26450000
N        0.18620000      -0.06700000       2.38860000
H        0.87750000       1.91150000       0.47670000
H       -0.13240000       1.93290000      -0.99260000
H       -0.86590000       1.89680000       0.63220000
H       -0.00240000      -3.78510000      -0.07660000
H        0.16790000      -2.64440000       1.94000000
H        0.26170000      -0.71420000       3.17360000
