19
Properties=species:S:1:pos:R:3 gdb_34396=T pbc="F F F"
C        0.04240000      -1.20930000      -0.15820000
C        0.03210000      -0.01020000      -0.06870000
C        0.02480000       1.43880000       0.02050000
C       -0.82240000       2.14890000      -1.04540000
C       -0.23940000       3.57220000      -1.09630000
C        1.27840000       3.35570000      -0.91910000
C        1.39840000       2.19970000       0.08230000
C        0.98900000       2.51460000       1.53220000
O       -0.31100000       1.91160000       1.35800000
H        0.04780000      -2.26900000      -0.22890000
H       -0.68850000       1.63720000      -2.00510000
H       -1.88360000       2.11260000      -0.78640000
H       -0.48630000       4.09840000      -2.02180000
H       -0.63940000       4.16390000      -0.26650000
H        1.72740000       3.05830000      -1.87400000
H        1.80260000       4.25550000      -0.58130000
H        2.30170000       1.60200000      -0.03360000
H        1.57510000       1.99590000       2.30080000
H        0.91450000       3.57730000       1.79450000
