17
Properties=species:S:1:pos:R:3 gdb_54919=T pbc="F F F"
C       -0.19510000       1.53630000       0.20680000
C        0.03250000       0.04750000       0.05620000
O        1.13470000      -0.45410000       0.07370000
C       -1.21280000      -0.81900000      -0.11140000
C       -1.69840000      -0.90590000      -1.59200000
C       -1.03020000      -2.31210000      -1.60110000
N       -0.94750000      -2.26880000      -0.11940000
C       -1.81230000      -3.42100000      -2.14830000
N       -2.43430000      -4.28320000      -2.60130000
H        0.74810000       2.07350000       0.10280000
H       -0.92410000       1.90390000      -0.52280000
H       -0.61300000       1.73640000       1.20080000
H       -1.97550000      -0.50550000       0.61170000
H       -2.78320000      -0.94710000      -1.68300000
H       -1.29530000      -0.18030000      -2.29900000
H       -0.05460000      -2.29510000      -2.10130000
H       -0.01750000      -2.48760000       0.22950000
