18
Properties=species:S:1:pos:R:3 gdb_11959=T pbc="F F F"
C        0.19600000       1.33230000       0.19540000
O       -0.20400000       0.00870000      -0.12960000
C        0.49080000      -0.53840000      -1.18010000
C        1.93260000      -1.00890000      -1.08490000
C        0.83420000      -1.97830000      -1.45810000
C        0.52990000      -3.28580000      -0.80760000
O        0.53530000      -1.83330000      -2.85820000
C        0.08120000      -0.46800000      -2.65030000
H        1.26560000       1.37700000       0.44040000
H       -0.00450000       2.03150000      -0.62830000
H       -0.38810000       1.63520000       1.06690000
H        2.67970000      -0.71810000      -1.81920000
H        2.28830000      -1.10540000      -0.06320000
H        0.68220000      -3.21550000       0.27290000
H       -0.50660000      -3.58120000      -0.99650000
H        1.18680000      -4.07270000      -1.19470000
H       -1.00410000      -0.39340000      -2.78420000
H        0.59360000       0.24620000      -3.30550000
