17
Properties=species:S:1:pos:R:3 gdb_14992=T pbc="F F F"
O        0.05350000       1.39910000       0.09410000
C        0.06550000       0.00040000      -0.06370000
C       -1.35870000      -0.57000000      -0.01570000
C       -1.41070000      -2.09540000      -0.12660000
C       -2.81280000      -2.56700000       0.23930000
O       -3.20750000      -2.07540000       1.53230000
C       -2.75360000      -0.84730000       1.86270000
N       -1.96220000      -0.08870000       1.23210000
H       -0.55270000       1.55830000       0.83160000
H        0.52770000      -0.21950000      -1.03280000
H        0.67000000      -0.49320000       0.71700000
H       -1.91550000      -0.11580000      -0.84730000
H       -1.15780000      -2.43400000      -1.13660000
H       -0.68540000      -2.54340000       0.56340000
H       -3.54620000      -2.21520000      -0.49710000
H       -2.88450000      -3.65500000       0.30430000
H       -3.17220000      -0.54490000       2.82110000
