19
Properties=species:S:1:pos:R:3 gdb_67739=T pbc="F F F"
C       -0.01510000       1.49340000       0.10250000
C        0.00130000      -0.00390000      -0.07210000
C        0.98080000      -0.69680000      -0.94550000
C        0.56950000      -1.94560000      -1.20590000
C       -0.68200000      -2.20610000      -0.40290000
C       -1.54800000      -3.39590000      -0.70630000
O       -0.19080000      -2.24060000       1.02250000
C       -0.52000000      -0.88320000       1.13980000
C       -1.28930000      -0.79280000      -0.12680000
H        0.94450000       1.86060000       0.48250000
H       -0.21820000       2.00490000      -0.84550000
H       -0.78970000       1.80040000       0.81360000
H        1.93080000      -0.26090000      -1.23320000
H        1.12100000      -2.72170000      -1.72150000
H       -0.96650000      -4.31980000      -0.62390000
H       -2.38730000      -3.45470000      -0.00870000
H       -1.94010000      -3.32660000      -1.72650000
H       -0.63860000      -0.46770000       2.13410000
H       -2.27120000      -0.41390000      -0.38610000
