19
Properties=species:S:1:pos:R:3 gdb_93418=T pbc="F F F"
C       -0.10530000       1.53030000       0.15760000
C        0.03530000       0.02180000      -0.01730000
C        0.35620000      -0.36030000      -1.46290000
C        0.59170000      -1.81460000      -1.73620000
C        0.76890000      -2.84720000      -0.90010000
C        0.79490000      -2.90720000       0.57890000
O        0.77870000      -3.98830000       1.13710000
C        0.85880000      -1.65580000       1.46240000
O        1.08280000      -0.41920000       0.83860000
H        0.83990000       2.02750000      -0.08160000
H       -0.88430000       1.93090000      -0.49840000
H       -0.36380000       1.77000000       1.19210000
H       -0.90640000      -0.46670000       0.27970000
H       -0.45240000      -0.01150000      -2.12020000
H        1.25030000       0.19590000      -1.78360000
H        0.61710000      -2.05450000      -2.79900000
H        0.89300000      -3.83900000      -1.32820000
H       -0.06840000      -1.64470000       2.05960000
H        1.68480000      -1.81190000       2.16280000
