15
Properties=species:S:1:pos:R:3 gdb_125732=T pbc="F F F"
C       -0.20760000       1.54600000       0.01930000
C        0.01900000       0.05780000       0.00390000
N        0.11850000      -0.46430000      -1.17980000
O        0.33440000      -1.85820000      -1.22500000
C        0.43700000      -2.65690000      -0.13990000
O        0.63370000      -3.84370000      -0.27440000
C        0.30540000      -2.01380000       1.18500000
N        0.38940000      -2.88210000       2.21520000
C        0.10710000      -0.66810000       1.23160000
H        0.59950000       2.05240000       0.55950000
H       -0.24800000       1.92900000      -1.00090000
H       -1.14670000       1.78690000       0.52900000
H        0.63540000      -3.83200000       1.98270000
H        0.45050000      -2.56890000       3.16720000
H        0.00970000      -0.13730000       2.17270000
