17
Properties=species:S:1:pos:R:3 gdb_46990=T pbc="F F F"
O        0.07210000      -0.07810000       0.01000000
C       -0.01940000       1.12300000       0.04630000
C       -1.33600000       1.88620000       0.15750000
C       -1.20090000       3.15270000       1.03710000
C        0.16500000       3.81740000       0.83750000
C        0.48710000       4.14360000      -0.63150000
O        1.06940000       2.93210000      -1.12530000
C        1.20430000       2.05310000      -0.01700000
O        1.19310000       2.85930000       1.13940000
H       -1.61120000       2.17310000      -0.86570000
H       -2.11110000       1.20850000       0.52170000
H       -2.00610000       3.86360000       0.81990000
H       -1.28590000       2.87870000       2.09380000
H        0.30160000       4.66950000       1.50600000
H       -0.40080000       4.39610000      -1.22070000
H        1.21550000       4.95760000      -0.71620000
H        2.13880000       1.49120000      -0.08020000
