17
Properties=species:S:1:pos:R:3 gdb_1282=T pbc="F F F"
C       -0.01340000       1.49200000      -0.01240000
C       -0.03940000      -0.02560000      -0.06390000
O        0.71900000      -0.44750000      -1.18140000
C        0.76940000      -1.83190000      -1.32260000
C        1.62430000      -2.21910000      -2.52750000
C        1.65160000      -3.70720000      -2.83720000
O        2.22480000      -1.40550000      -3.18180000
H        1.01430000       1.85340000       0.08080000
H       -0.44220000       1.91320000      -0.92570000
H       -0.59050000       1.85370000       0.84380000
H        0.38010000      -0.45370000       0.86270000
H       -1.07620000      -0.39450000      -0.14660000
H        1.20160000      -2.32280000      -0.42940000
H       -0.23710000      -2.27380000      -1.44950000
H        1.83090000      -4.30190000      -1.93520000
H        0.68090000      -4.01940000      -3.24050000
H        2.42540000      -3.91120000      -3.57800000
