17
Properties=species:S:1:pos:R:3 gdb_73653=T pbc="F F F"
N       -0.04520000       1.45210000      -0.21240000
C       -0.01290000       0.01710000      -0.05920000
C        0.71500000      -0.68960000      -1.21480000
O        0.10690000      -1.96580000      -1.35060000
C       -1.28300000      -1.78120000      -1.11690000
C       -1.36710000      -0.77820000       0.03230000
N       -0.91050000      -1.26780000       1.33840000
C        0.31020000      -0.63330000       1.32530000
O        1.23360000      -0.60770000       2.09440000
H       -0.41830000       1.88990000       0.62540000
H        0.90250000       1.80680000      -0.31160000
H        0.58830000      -0.08290000      -2.12630000
H        1.78070000      -0.84460000      -1.02760000
H       -1.78470000      -1.36250000      -2.00480000
H       -1.72080000      -2.75860000      -0.89520000
H       -2.28960000      -0.19460000       0.06380000
H       -1.23880000      -2.03780000       1.90380000
