21
Properties=species:S:1:pos:R:3 gdb_68400=T pbc="F F F"
C       -0.00750000       1.51270000       0.03350000
C        0.02180000      -0.01710000       0.06140000
C       -1.40400000      -0.54600000      -0.11000000
O        0.88500000      -0.52890000      -0.99710000
C        1.88360000      -1.25750000      -0.26310000
C        2.26930000      -0.30500000       0.89260000
C        0.78060000      -0.61660000       1.27740000
O        0.18740000      -0.29900000       2.49210000
C        1.07050000      -2.07240000       0.76940000
H        0.98790000       1.95170000       0.11210000
H       -0.44980000       1.85520000      -0.90660000
H       -0.61730000       1.89050000       0.85970000
H       -1.82490000      -0.17220000      -1.04800000
H       -1.44550000      -1.63560000      -0.13770000
H       -2.03400000      -0.19780000       0.71400000
H        2.60410000      -1.69840000      -0.94800000
H        2.97970000      -0.75160000       1.59260000
H        2.56250000       0.71390000       0.64260000
H        0.70180000      -0.69690000       3.20110000
H        0.25200000      -2.69230000       0.40510000
H        1.70300000      -2.63380000       1.46140000
