17
Properties=species:S:1:pos:R:3 gdb_11319=T pbc="F F F"
C       -0.03050000       1.44240000      -0.03040000
N       -0.07530000      -0.00900000      -0.04480000
C        0.50700000      -0.64190000      -0.97020000
O        1.20950000      -0.07810000      -2.01590000
C        1.73520000      -1.11050000      -2.86720000
C        3.25200000      -0.97010000      -2.98110000
C        1.26480000      -2.38840000      -2.22480000
C        0.56240000      -2.09980000      -1.13030000
H        0.63500000       1.88450000      -0.78040000
H       -1.04220000       1.83650000      -0.18860000
H        0.28380000       1.77910000       0.96410000
H        1.28360000      -0.97990000      -3.86200000
H        3.72190000      -1.09430000      -2.00160000
H        3.65250000      -1.72840000      -3.66140000
H        3.51090000       0.01680000      -3.37340000
H        1.49530000      -3.36620000      -2.62680000
H        0.08790000      -2.77250000      -0.43140000
