13
Properties=species:S:1:pos:R:3 gdb_43330=T pbc="F F F"
O       -0.01310000       0.05180000      -0.44460000
C       -0.03940000       1.20310000      -0.07690000
C       -1.29230000       1.96300000       0.12070000
C       -1.31100000       3.16590000       0.70980000
C       -0.09150000       3.77990000       1.29600000
O        0.59570000       2.97890000       2.26620000
C        1.23940000       3.19210000       1.00770000
C        1.28850000       1.99200000       0.10900000
O        2.28300000       1.67170000      -0.48940000
H       -2.19780000       1.48050000      -0.23280000
H       -2.24350000       3.71050000       0.82600000
H       -0.13590000       4.83780000       1.54420000
H        2.13760000       3.80590000       1.02680000
