22
Properties=species:S:1:pos:R:3 gdb_17108=T pbc="F F F"
C       -0.03320000       1.57580000      -0.02000000
C       -0.06350000       0.04370000      -0.03540000
C        0.72330000      -0.56570000      -1.19890000
C        2.28230000      -0.38510000      -1.13030000
C        2.71590000      -1.86030000      -1.24620000
C        1.77420000      -2.38830000      -2.36720000
C        0.67960000      -2.10950000      -1.29620000
C        1.74540000      -2.56040000      -0.25330000
H        0.99020000       1.95560000       0.06940000
H       -0.45750000       1.98780000      -0.94270000
H       -0.61000000       1.97690000       0.81930000
H        0.32490000      -0.33750000       0.91740000
H       -1.10640000      -0.29520000      -0.09590000
H        0.33490000      -0.13420000      -2.13060000
H        2.67560000       0.23260000      -1.94300000
H        2.60570000       0.06330000      -0.18460000
H        3.78690000      -2.06770000      -1.24670000
H        1.72700000      -1.83130000      -3.30880000
H        1.91060000      -3.45410000      -2.56620000
H       -0.30770000      -2.57170000      -1.34800000
H        1.87420000      -3.64540000      -0.23550000
H        1.68150000      -2.17740000       0.76920000
