16
Properties=species:S:1:pos:R:3 gdb_124341=T pbc="F F F"
C       -0.10770000       1.52460000      -0.02750000
C        0.07140000       0.02920000      -0.02040000
O        1.13370000      -0.54100000      -0.03770000
N       -1.13360000      -0.71940000       0.00840000
N       -2.35790000      -0.10040000       0.02850000
C       -3.18350000      -1.11860000       0.05160000
N       -2.59580000      -2.35550000       0.04780000
C       -1.30910000      -2.08840000       0.02050000
C       -0.21660000      -3.09800000       0.00530000
H        0.88010000       1.98370000      -0.04570000
H       -0.69220000       1.83530000      -0.89710000
H       -0.66650000       1.84750000       0.85440000
H       -4.25460000      -0.97980000       0.07190000
H        0.41180000      -2.98730000      -0.88210000
H        0.44310000      -2.97950000       0.86880000
H       -0.67020000      -4.08970000       0.01800000
