18
Properties=species:S:1:pos:R:3 gdb_116628=T pbc="F F F"
C        0.04680000       0.44320000      -1.10730000
C       -0.58280000       0.20330000       0.26150000
N       -0.14280000      -1.07350000       0.81210000
C       -0.31920000      -1.30060000       2.03860000
O       -0.91820000      -0.45770000       2.92930000
C       -0.79170000      -0.95170000       4.28290000
C       -0.44130000      -2.43890000       4.17770000
C        0.08130000      -2.57550000       2.75000000
O        0.67760000      -3.50050000       2.27270000
H       -0.21010000      -0.36700000      -1.79560000
H       -0.30300000       1.38850000      -1.53400000
H        1.13730000       0.48290000      -1.02950000
H       -0.34930000       1.02810000       0.94960000
H       -1.67910000       0.18790000       0.17320000
H       -0.00220000      -0.38110000       4.78420000
H       -1.73850000      -0.75370000       4.78850000
H        0.29550000      -2.77900000       4.90690000
H       -1.32910000      -3.07350000       4.27610000
