15
Properties=species:S:1:pos:R:3 gdb_5531=T pbc="F F F"
C       -0.29630000       1.60230000      -0.10920000
C        0.04030000       0.10650000       0.02290000
C        0.81990000      -0.43710000      -1.11790000
C        2.06220000      -0.96580000      -1.27510000
O        3.00220000      -1.15700000      -0.32610000
N        2.28210000      -1.31280000      -2.59330000
C        1.17650000      -0.98440000      -3.18520000
O        0.24470000      -0.45250000      -2.37920000
H        0.61540000       2.20400000      -0.16990000
H       -0.88490000       1.79010000      -1.01190000
H       -0.87740000       1.94460000       0.75240000
H        0.63240000      -0.06810000       0.92710000
H       -0.88960000      -0.46500000       0.14450000
H        3.76240000      -1.55560000      -0.76600000
H        0.92520000      -1.08850000      -4.22890000
