15
Properties=species:S:1:pos:R:3 gdb_24309=T pbc="F F F"
C       -0.11980000       1.51800000      -0.07750000
C        1.42620000       1.70760000       0.05370000
C        2.13950000       2.12760000       1.38500000
O        2.24210000       0.92090000       2.22640000
C        1.54950000      -0.02670000       1.54640000
C        1.39030000       0.21900000       0.22300000
N       -0.00180000      -0.05040000      -0.05140000
C       -0.38460000      -0.74080000       1.11280000
N        0.52170000      -0.79310000       2.06410000
H       -0.70630000       1.86510000       0.77370000
H       -0.55540000       1.84970000      -1.01900000
H        1.89230000       2.16470000      -0.82110000
H        3.15470000       2.47290000       1.17270000
H        1.61990000       2.89610000       1.96890000
H       -1.33910000      -1.25030000       1.17810000
