20
Properties=species:S:1:pos:R:3 gdb_97402=T pbc="F F F"
C        0.32010000       0.77700000      -0.47500000
N        0.06090000      -0.60730000      -0.13910000
C       -1.13660000      -0.95000000       0.02510000
O       -1.44630000      -2.21360000       0.39320000
C       -2.82890000      -2.58550000       0.30220000
C       -3.18240000      -3.11950000      -1.11080000
C       -2.79310000      -4.54860000      -0.61530000
O       -1.48620000      -4.94870000      -0.94740000
C       -2.96110000      -4.02410000       0.84460000
H        0.87710000       0.82700000      -1.41730000
H       -0.58870000       1.39280000      -0.57600000
H        0.95670000       1.22860000       0.29430000
H       -2.00750000      -0.28450000      -0.08370000
H       -3.45360000      -1.79820000       0.73730000
H       -4.25220000      -3.02900000      -1.31990000
H       -2.60970000      -2.71990000      -1.95110000
H       -3.44830000      -5.36680000      -0.92130000
H       -0.88370000      -4.24970000      -0.66280000
H       -2.20800000      -4.33830000       1.57000000
H       -3.96070000      -4.21280000       1.24430000
