22
Properties=species:S:1:pos:R:3 gdb_57952=T pbc="F F F"
C        1.04640000       1.28380000      -0.72380000
C        0.15920000       0.51370000       0.25620000
C       -0.46480000      -0.73430000      -0.39940000
C        0.91010000       0.11500000       1.50980000
N        2.17210000       0.15640000       1.60310000
O        0.01580000      -0.29070000       2.46900000
C        0.53040000      -0.68130000       3.71460000
C       -0.29860000      -1.66350000       4.47500000
C        1.03090000      -2.09080000       3.88900000
H        1.88660000       0.66730000      -1.05310000
H        0.46450000       1.58080000      -1.60220000
H        1.46270000       2.18240000      -0.26190000
H       -0.66500000       1.16010000       0.58490000
H        0.31760000      -1.41930000      -0.74360000
H       -1.10830000      -1.27050000       0.30220000
H       -1.06620000      -0.44590000      -1.26680000
H        2.50360000      -0.18240000       2.50520000
H        1.02310000       0.12350000       4.25510000
H       -0.38350000      -1.53950000       5.54830000
H       -1.19640000      -2.01970000       3.98340000
H        1.00500000      -2.72810000       3.01270000
H        1.86790000      -2.26530000       4.55590000
