16
Properties=species:S:1:pos:R:3 gdb_49882=T pbc="F F F"
N        0.91240000      -0.13210000       0.30050000
C       -0.23480000       0.34480000       0.01870000
N       -1.34460000      -0.47610000       0.01850000
C       -1.24080000      -1.89090000       0.33520000
C       -2.67370000      -2.40250000       0.21780000
O       -3.02430000      -3.53570000       0.40280000
C       -3.56620000      -1.22610000      -0.17220000
C       -2.63620000      -0.03320000      -0.27880000
N       -2.88440000       1.17820000      -0.57480000
H        1.61660000       0.60190000       0.25530000
H       -0.48450000       1.37500000      -0.23950000
H       -0.57440000      -2.41690000      -0.35810000
H       -0.84290000      -2.05570000       1.34310000
H       -4.07560000      -1.43100000      -1.11960000
H       -4.34360000      -1.06990000       0.58280000
H       -3.87660000       1.30940000      -0.75890000
