18
Properties=species:S:1:pos:R:3 gdb_28282=T pbc="F F F"
C       -0.07010000       1.50060000       0.05790000
C        0.07860000       0.00930000      -0.01620000
C       -0.07160000      -0.76480000      -1.15450000
N       -0.06390000      -2.07980000      -0.74540000
C        0.54280000      -3.39350000      -1.02330000
C        1.96580000      -3.45450000      -0.53220000
C        0.81970000      -3.53710000       0.46960000
C        0.24000000      -2.14390000       0.60130000
C        0.34160000      -0.86680000       1.09660000
H        0.75840000       1.95850000       0.61020000
H       -0.09000000       1.94640000      -0.94100000
H       -0.99520000       1.79560000       0.56850000
H       -0.31190000      -0.46830000      -2.16420000
H        0.09400000      -4.08660000      -1.72260000
H        2.49130000      -4.38480000      -0.73590000
H        2.58360000      -2.56270000      -0.56600000
H        0.65180000      -4.39750000       1.10240000
H        0.55510000      -0.55850000       2.10920000
