16
Properties=species:S:1:pos:R:3 gdb_128431=T pbc="F F F"
C        0.06140000       1.29170000      -0.09410000
O       -0.08700000      -0.12880000      -0.17580000
C       -1.30810000      -0.59410000       0.06670000
N       -2.31370000       0.14830000       0.27690000
N       -1.30890000      -2.01170000       0.02910000
C       -2.39410000      -2.81420000      -0.19850000
C       -1.95160000      -4.10900000      -0.12600000
C       -0.56750000      -3.99420000       0.15490000
N       -0.17800000      -2.73360000       0.24540000
H        1.11980000       1.48090000      -0.27310000
H       -0.55400000       1.78690000      -0.84940000
H       -0.23650000       1.65330000       0.89330000
H       -3.14560000      -0.38580000       0.50750000
H       -3.36410000      -2.40210000      -0.42280000
H       -2.53400000      -5.00510000      -0.26570000
H        0.15590000      -4.78440000       0.29570000
