16
Properties=species:S:1:pos:R:3 gdb_125343=T pbc="F F F"
C        0.04170000       1.43490000       0.14260000
C        0.07230000      -0.05820000      -0.00720000
C       -0.36260000      -0.71130000      -1.17690000
N       -0.32990000      -2.02360000      -1.29410000
C        0.14700000      -2.67340000      -0.21770000
C        0.21910000      -4.18040000      -0.26780000
O        0.72970000      -4.74570000       0.90720000
N        0.56700000      -2.10080000       0.90300000
N        0.53170000      -0.77370000       1.01600000
H        0.65380000       1.92120000      -0.62450000
H       -0.97790000       1.82120000       0.03820000
H        0.42440000       1.71040000       1.12630000
H       -0.74140000      -0.14140000      -2.02390000
H       -0.79390000      -4.55850000      -0.47840000
H        0.83450000      -4.45850000      -1.13820000
H        0.92640000      -4.00560000       1.50090000
