17
Properties=species:S:1:pos:R:3 gdb_56436=T pbc="F F F"
C       -0.59400000       1.65290000       0.62260000
C       -0.47040000       0.28390000      -0.06440000
C        0.85560000      -0.30730000       0.10680000
C        1.93790000      -0.79710000       0.28900000
C       -1.49450000      -0.72060000       0.50900000
O       -1.98820000      -0.59410000       1.60230000
C       -1.86400000      -1.89970000      -0.35020000
C       -2.49540000      -1.68770000      -1.66990000
O       -1.14610000      -2.11560000      -1.56170000
H        0.17130000       2.33410000       0.24460000
H       -1.57980000       2.08610000       0.43170000
H       -0.47360000       1.54480000       1.70160000
H       -0.65560000       0.37970000      -1.14150000
H        2.89810000      -1.22790000       0.43090000
H       -2.13520000      -2.79090000       0.21290000
H       -3.20410000      -2.42970000      -2.03270000
H       -2.64210000      -0.67590000      -2.04540000
