20
Properties=species:S:1:pos:R:3 gdb_18522=T pbc="F F F"
C        0.04880000       1.49890000      -0.02170000
C       -0.11360000      -0.00100000      -0.20280000
O        0.94590000      -0.47370000      -1.01220000
C        0.90740000      -1.85880000      -1.24130000
C       -0.12590000      -2.42710000      -2.28450000
C        1.05490000      -2.97840000      -3.09020000
C        1.95940000      -1.85220000      -3.49440000
C        2.05580000      -2.38330000      -2.09030000
H        1.00780000       1.72540000       0.45280000
H        0.01870000       2.00720000      -0.98970000
H       -0.75380000       1.89810000       0.60570000
H       -0.09930000      -0.51270000       0.77500000
H       -1.08620000      -0.22890000      -0.66890000
H        0.82520000      -2.39820000      -0.28580000
H       -0.77600000      -3.19390000      -1.85740000
H       -0.74140000      -1.68150000      -2.79860000
H        1.08780000      -3.94740000      -3.57180000
H        2.78910000      -2.12390000      -4.13900000
H        1.55700000      -0.85900000      -3.67300000
H        2.97430000      -2.80380000      -1.69990000
