19
Properties=species:S:1:pos:R:3 gdb_1689=T pbc="F F F"
C       -0.15450000       1.52720000      -0.06050000
C        0.03200000       0.00900000      -0.00320000
O        0.73920000      -0.46750000      -1.14990000
C        0.79530000      -0.49210000       1.23640000
C        0.75630000      -2.02470000       1.31150000
C        2.24230000       0.03230000       1.28210000
O        2.92630000      -0.33940000       2.47270000
H        0.80220000       2.04550000      -0.16630000
H       -0.77950000       1.80190000      -0.91840000
H       -0.65430000       1.89590000       0.84120000
H       -0.96970000      -0.45310000       0.02790000
H        0.27170000      -0.16730000      -1.93520000
H        0.27590000      -0.09060000       2.11670000
H        1.25430000      -2.46920000       0.44450000
H        1.24110000      -2.38620000       2.22360000
H       -0.27540000      -2.39130000       1.32750000
H        2.78280000      -0.30170000       0.38640000
H        2.24830000       1.12610000       1.27870000
H        3.14540000      -1.27300000       2.40750000
