17
Properties=species:S:1:pos:R:3 gdb_124125=T pbc="F F F"
C       -0.14300000       1.47960000       0.03340000
C       -0.02380000       0.03090000       0.01560000
C        0.08380000      -1.17110000       0.00140000
C        0.19720000      -2.57660000      -0.01570000
C        1.29510000      -3.42450000       0.02000000
C        0.76310000      -4.73180000      -0.02420000
C        1.49660000      -6.03610000      -0.01170000
N       -0.57030000      -4.70450000      -0.08330000
N       -0.89020000      -3.40060000      -0.07710000
H        0.84410000       1.95330000      -0.00160000
H       -0.71640000       1.84360000      -0.82650000
H       -0.64680000       1.82870000       0.94190000
H        2.32920000      -3.12550000       0.07080000
H        2.09620000      -6.14970000       0.89800000
H        0.78430000      -6.86250000      -0.05990000
H        2.18020000      -6.11920000      -0.86360000
H       -1.85600000      -3.12200000      -0.11580000
