20
Properties=species:S:1:pos:R:3 gdb_22072=T pbc="F F F"
C       -0.50830000       1.51910000       0.34800000
C       -0.07120000       0.09000000       0.03060000
C       -1.27300000      -0.86480000      -0.01420000
C        0.89370000      -0.08580000      -1.20110000
C        1.87880000      -0.91310000      -0.32480000
O        3.22170000      -0.50140000      -0.38070000
C        1.07320000      -0.45390000       0.87810000
N        1.31590000      -0.33390000       2.11420000
O        2.58070000      -0.91190000       2.41790000
H        0.35020000       2.19520000       0.39140000
H       -1.19750000       1.88770000      -0.42010000
H       -1.02010000       1.56380000       1.31450000
H       -1.97490000      -0.55090000      -0.79480000
H       -0.96750000      -1.89330000      -0.23070000
H       -1.80350000      -0.86600000       0.94320000
H        0.47790000      -0.58800000      -2.07650000
H        1.35930000       0.85540000      -1.50010000
H        1.77730000      -1.99610000      -0.49790000
H        3.59750000      -0.68890000       0.48870000
H        2.68690000      -0.69610000       3.35020000
