17
Properties=species:S:1:pos:R:3 gdb_15141=T pbc="F F F"
O       -0.04760000       0.05880000       0.33460000
C        0.22770000       0.97820000      -0.38870000
C        1.36370000       1.95010000      -0.11700000
O        1.41920000       2.86750000      -1.17710000
C        2.43050000       3.84720000      -1.02760000
C        2.35480000       4.80430000      -2.18390000
C        3.60160000       5.42670000      -2.69520000
N        2.88720000       4.42360000      -3.49880000
H       -0.33120000       1.19820000      -1.32450000
H        1.18000000       2.44560000       0.85220000
H        2.30160000       1.37840000      -0.01000000
H        2.29680000       4.38680000      -0.07450000
H        3.42520000       3.36840000      -0.99500000
H        1.42610000       5.36800000      -2.23780000
H        3.57900000       6.43680000      -3.09310000
H        4.54080000       5.15020000      -2.22160000
H        3.35440000       3.52190000      -3.43440000
