21
Properties=species:S:1:pos:R:3 gdb_93636=T pbc="F F F"
C        0.67620000       1.65310000      -0.00690000
C        0.25630000       0.17940000      -0.00920000
C        1.02130000      -0.64180000      -1.08480000
O        1.57150000      -1.79130000      -0.44150000
C        1.80350000      -1.44360000       0.91740000
C        3.07660000      -0.72930000       1.09370000
C        4.12600000      -0.15750000       1.23030000
C        0.55070000      -0.61490000       1.30130000
C        0.64700000       0.18170000       2.59930000
H        1.74580000       1.76420000       0.19550000
H        0.47390000       2.10500000      -0.98420000
H        0.12520000       2.23080000       0.74120000
H       -0.81940000       0.13340000      -0.20690000
H        0.38200000      -1.00350000      -1.89480000
H        1.82570000      -0.03590000      -1.52650000
H        1.84890000      -2.38290000       1.47900000
H        5.05760000       0.33860000       1.34980000
H       -0.24630000      -1.35850000       1.41220000
H        1.46580000       0.90440000       2.57460000
H       -0.28380000       0.72380000       2.79400000
H        0.82130000      -0.48700000       3.44900000
