18
Properties=species:S:1:pos:R:3 gdb_117404=T pbc="F F F"
C        0.06670000       1.41730000       0.22470000
O        0.05590000       0.02240000       0.01620000
C        0.58930000      -0.68480000       1.09140000
C        0.54100000      -2.16910000       0.78770000
O        0.12000000      -2.68800000      -0.20310000
O        1.07270000      -2.83800000       1.86270000
C        1.12890000      -4.21140000       1.80360000
N        1.61200000      -4.83000000       2.78010000
C        1.65880000      -6.27670000       2.68960000
H        1.08940000       1.80080000       0.36460000
H       -0.36670000       1.87740000      -0.66540000
H       -0.53210000       1.70300000       1.10350000
H        1.63880000      -0.41250000       1.29790000
H        0.03450000      -0.51000000       2.02950000
H        0.73080000      -4.62710000       0.87550000
H        1.09810000      -6.70740000       3.52620000
H        1.25420000      -6.68170000       1.74960000
H        2.69660000      -6.61010000       2.79630000
