25
Properties=species:S:1:pos:R:3 gdb_121933=T pbc="F F F"
C       -0.06860000       1.55680000       0.04970000
C       -0.06500000       0.02880000      -0.04820000
C        0.73200000      -0.49450000      -1.24740000
C        0.73580000      -2.02180000      -1.35810000
C        1.59310000      -2.55280000      -2.51540000
O        2.94910000      -2.11400000      -2.40500000
C        1.50010000      -4.05870000      -2.64660000
C        0.44800000      -4.68470000      -3.52900000
C        1.90020000      -4.72860000      -3.93330000
H        0.95020000       1.94900000       0.14370000
H       -0.51330000       2.00930000      -0.84380000
H       -0.64030000       1.90230000       0.91690000
H        0.35010000      -0.39610000       0.87580000
H       -1.09900000      -0.33690000      -0.10900000
H        0.31860000      -0.06700000      -2.17190000
H        1.76840000      -0.14230000      -1.18960000
H        1.10860000      -2.46050000      -0.41930000
H       -0.28910000      -2.39570000      -1.48070000
H        1.24310000      -2.10010000      -3.45320000
H        3.33330000      -2.55240000      -1.63760000
H        1.73230000      -4.59680000      -1.72830000
H       -0.02650000      -5.60100000      -3.19590000
H       -0.21180000      -4.02030000      -4.07800000
H        2.22270000      -4.08910000      -4.74800000
H        2.42100000      -5.67830000      -3.88180000
