17
Properties=species:S:1:pos:R:3 gdb_65701=T pbc="F F F"
C       -0.28620000       1.66110000       0.23660000
C       -0.12330000       0.16280000       0.12730000
C       -1.28200000      -0.58980000      -0.51330000
C       -1.42230000      -0.25030000      -1.98710000
O       -2.45210000       0.07880000      -2.51560000
O        1.16860000      -0.29530000      -0.29290000
C        0.76550000      -0.57640000       1.06040000
C        1.49520000       0.06360000       2.12050000
C        2.09740000       0.56890000       3.03000000
H       -1.17230000       1.90600000       0.83120000
H        0.58830000       2.11200000       0.70730000
H       -0.41780000       2.10410000      -0.75620000
H       -1.08560000      -1.66760000      -0.44710000
H       -2.22850000      -0.37430000      -0.00950000
H       -0.47590000      -0.33940000      -2.56470000
H        0.53390000      -1.62650000       1.24030000
H        2.63370000       1.01860000       3.82910000
