23
Properties=species:S:1:pos:R:3 gdb_94572=T pbc="F F F"
O        0.46510000       0.81730000      -0.80760000
C        0.09380000      -0.24130000       0.04090000
C       -0.07440000      -0.00190000       1.56370000
C       -1.26000000      -1.00600000       1.53980000
C       -1.35530000      -0.83010000      -0.00780000
C       -2.42570000       0.15060000      -0.45720000
C       -2.56830000       0.47810000      -1.97380000
C       -4.10940000       0.46260000      -1.79730000
C       -3.91070000      -0.32050000      -0.47120000
H       -0.14690000       1.54530000      -0.66090000
H        0.82810000      -1.03070000      -0.14570000
H        0.77900000      -0.21700000       2.21090000
H       -0.41170000       1.02000000       1.76840000
H       -0.95390000      -2.01570000       1.82420000
H       -2.14840000      -0.73950000       2.11740000
H       -1.45790000      -1.75490000      -0.58630000
H       -2.35630000       1.08440000       0.11810000
H       -2.10140000       1.39090000      -2.35170000
H       -2.22050000      -0.35920000      -2.58700000
H       -4.50830000       1.46560000      -1.61880000
H       -4.70640000      -0.01020000      -2.58060000
H       -3.97660000      -1.40230000      -0.62800000
H       -4.54120000      -0.05600000       0.38130000
