19
Properties=species:S:1:pos:R:3 gdb_91076=T pbc="F F F"
O       -0.02480000       1.42320000      -0.04880000
C        0.00240000       0.01120000       0.04880000
C        0.60300000      -0.53620000       1.36700000
C        0.02210000      -1.95280000       1.47050000
C       -0.84470000      -2.33000000       2.69070000
O       -1.83010000      -1.30360000       2.85460000
C       -2.07530000      -2.32730000       1.88290000
C       -1.29960000      -1.95140000       0.60250000
C       -1.43610000      -0.53760000       0.02250000
H        0.88320000       1.74010000      -0.07740000
H        0.56210000      -0.41760000      -0.80050000
H        1.69720000      -0.50860000       1.37230000
H        0.23460000       0.08970000       2.18570000
H        0.72130000      -2.74530000       1.19560000
H       -0.57340000      -2.89480000       3.57570000
H       -2.99660000      -2.88960000       1.98590000
H       -1.32700000      -2.74550000      -0.14670000
H       -2.04310000       0.09210000       0.68010000
H       -1.86990000      -0.50840000      -0.97970000
