15
Properties=species:S:1:pos:R:3 gdb_28826=T pbc="F F F"
C       -0.47900000       1.36570000       0.12330000
C       -0.02220000      -0.05940000      -0.04920000
N       -0.23350000      -0.61900000      -1.19800000
C        0.16340000      -1.90560000      -1.49750000
N        0.19060000      -2.96610000      -0.77880000
C       -0.07390000      -2.97910000       0.58950000
O       -0.78770000      -3.79860000       1.11940000
C        0.68460000      -1.97320000       1.38310000
C        0.66200000      -0.65880000       1.09530000
H       -1.14410000       1.45490000       0.98970000
H        0.37950000       2.02080000       0.31450000
H       -0.99630000       1.70400000      -0.77410000
H        0.43130000      -2.02080000      -2.54920000
H        1.15500000      -2.33200000       2.29460000
H        1.10460000       0.04030000       1.80120000
