18
Properties=species:S:1:pos:R:3 gdb_67072=T pbc="F F F"
C       -0.13400000       1.53230000      -0.08110000
C        0.05920000       0.05880000      -0.00480000
C        0.67970000      -0.97600000      -0.86390000
C        1.39630000      -1.64080000       0.30460000
C        0.32310000      -0.95960000       1.20980000
C       -0.97320000      -1.64040000       0.71140000
N       -0.81300000      -0.97850000      -0.61750000
C        0.57380000      -0.65400000       2.58500000
C        0.77070000      -0.37970000       3.74050000
H        0.77390000       2.06580000       0.21890000
H       -0.38300000       1.82100000      -1.10700000
H       -0.94960000       1.86050000       0.57240000
H        0.98790000      -0.91020000      -1.89900000
H        1.45620000      -2.73300000       0.35040000
H        2.38550000      -1.20430000       0.45890000
H       -0.99590000      -2.73610000       0.69920000
H       -1.87250000      -1.25120000       1.19320000
H        0.94780000      -0.14350000       4.76040000
