17
Properties=species:S:1:pos:R:3 gdb_44152=T pbc="F F F"
O       -0.14970000       0.11720000      -0.06110000
C       -0.02000000       1.29450000       0.00880000
O       -1.02890000       2.24470000       0.17810000
C       -0.06060000       3.31260000      -0.01340000
C        0.92750000       3.31010000       1.09420000
C        0.62600000       2.91780000       2.50330000
C        1.74360000       2.82300000       3.51230000
C        0.74480000       3.94790000       3.60190000
C        1.07660000       2.31890000      -0.08850000
H       -0.34950000       4.11990000      -0.67190000
H        1.66470000       4.10760000       1.00130000
H       -0.18180000       2.20220000       2.60590000
H        1.69930000       2.02780000       4.24780000
H        2.74840000       3.06290000       3.18000000
H        1.07760000       4.94450000       3.33030000
H        0.00900000       3.92940000       4.39780000
H        1.95850000       2.26550000      -0.70980000
