16
Properties=species:S:1:pos:R:3 gdb_127116=T pbc="F F F"
C       -0.06940000       1.42220000       0.02030000
N        0.00160000      -0.03090000      -0.02480000
C        0.07730000      -0.70530000       1.26140000
C       -0.00390000      -0.71680000      -1.18560000
N        0.06450000      -2.06080000      -1.15970000
C        0.05070000      -2.60680000      -2.36060000
N       -0.02170000      -1.96640000      -3.53300000
N       -0.08670000      -0.63960000      -3.47980000
N       -0.08000000       0.00100000      -2.34510000
H        0.81600000       1.82360000       0.52770000
H       -0.12050000       1.81870000      -0.99030000
H       -0.95720000       1.73580000       0.58250000
H       -0.80530000      -0.46240000       1.86540000
H        0.12750000      -1.78040000       1.10860000
H        0.96750000      -0.37180000       1.80830000
H        0.10330000      -3.69200000      -2.41720000
