14
Properties=species:S:1:pos:R:3 gdb_27448=T pbc="F F F"
N        0.04490000       1.30110000       0.26290000
C       -0.05030000      -0.02700000      -0.04440000
N       -1.20410000      -0.59690000       0.00040000
C       -1.45770000      -1.92650000      -0.32100000
O       -2.45570000      -2.25860000      -0.92470000
C       -0.52920000      -2.94640000       0.23090000
C        0.81440000      -2.86400000       0.20480000
N        1.59780000      -1.85680000      -0.33550000
C        1.22910000      -0.64080000      -0.47640000
H        0.93620000       1.70120000       0.50130000
H       -0.77710000       1.73540000       0.65260000
H       -0.99600000      -3.87060000       0.55960000
H        1.40260000      -3.71260000       0.54490000
H        1.95340000       0.04510000      -0.92450000
