14
Properties=species:S:1:pos:R:3 gdb_9020=T pbc="F F F"
C       -0.00980000       1.55100000       0.00050000
C       -0.02000000       0.00110000       0.05550000
C        0.73620000      -0.49510000       1.21090000
C        1.37060000      -0.87700000       2.15620000
C       -1.38820000      -0.52150000       0.05130000
C       -2.52340000      -0.93790000       0.02950000
C       -3.80180000      -1.40420000       0.01050000
C       -4.93590000      -1.81810000      -0.00830000
H        1.02100000       1.91140000      -0.03550000
H       -0.54320000       1.89580000      -0.88840000
H       -0.49640000       1.96400000       0.88640000
H        0.47810000      -0.36620000      -0.85410000
H        1.92510000      -1.22580000       2.99210000
H       -5.93330000      -2.18160000      -0.02250000
