16
Properties=species:S:1:pos:R:3 gdb_56430=T pbc="F F F"
C       -0.07800000       1.53560000      -0.03040000
C       -0.04710000      -0.01400000       0.03710000
C        0.67740000      -0.47800000       1.21900000
N        1.27990000      -0.82940000       2.13960000
C       -1.48210000      -0.54870000       0.03270000
O       -2.09720000      -0.81220000       1.03770000
C       -2.13790000      -0.71060000      -1.33360000
N       -3.45160000      -1.04600000      -1.23300000
N       -1.41500000      -0.50530000      -2.37170000
H        0.94220000       1.92490000      -0.02630000
H       -0.57070000       1.84570000      -0.95350000
H       -0.61310000       1.94840000       0.82810000
H        0.45000000      -0.38290000      -0.86380000
H       -3.78930000      -1.29720000      -0.31630000
H       -3.96250000      -1.36140000      -2.03920000
H       -1.93680000      -0.64410000      -3.23920000
