16
Properties=species:S:1:pos:R:3 gdb_43204=T pbc="F F F"
O        0.08390000       0.05430000       0.47700000
C       -0.01380000       1.20350000       0.17480000
C       -1.18920000       2.24680000       0.11160000
C       -2.12590000       2.25410000       1.20780000
C       -2.88010000       2.26270000       2.14420000
C       -0.02930000       3.28960000       0.06800000
C        0.68460000       3.69790000       1.38280000
C        1.78880000       2.65350000       1.03410000
N        0.96710000       2.17740000      -0.13340000
H       -1.70820000       2.19870000      -0.85220000
H       -3.55740000       2.26120000       2.96220000
H       -0.09050000       4.04350000      -0.71800000
H        1.01050000       4.73770000       1.43460000
H        0.10820000       3.45910000       2.27970000
H        2.73340000       3.08620000       0.69810000
H        1.98980000       1.86650000       1.76410000
