19
Properties=species:S:1:pos:R:3 gdb_118812=T pbc="F F F"
O        0.12890000       1.39070000       0.18500000
C        0.03380000      -0.02070000       0.26630000
C       -1.32370000      -0.55030000      -0.20590000
C       -1.44000000      -2.05620000      -0.09990000
O       -0.58100000      -2.77490000      -0.95010000
C       -1.80820000      -2.71160000       1.20270000
C       -2.79880000      -2.71930000       0.03540000
C       -4.01170000      -1.96070000       0.09800000
C       -5.03470000      -1.32910000       0.14870000
H        0.02300000       1.63960000      -0.73890000
H        0.84500000      -0.50500000      -0.30210000
H        0.18550000      -0.26730000       1.32310000
H       -2.11650000      -0.07190000       0.37600000
H       -1.47800000      -0.26750000      -1.25610000
H        0.29510000      -2.78860000      -0.54980000
H       -1.33850000      -3.65890000       1.44190000
H       -2.05050000      -2.08160000       2.05100000
H       -2.86410000      -3.66260000      -0.49800000
H       -5.93790000      -0.77290000       0.19050000
