18
Properties=species:S:1:pos:R:3 gdb_7319=T pbc="F F F"
C        0.31580000       1.62520000       0.02830000
C       -0.08590000       0.16100000      -0.20490000
N        0.64980000      -0.42580000      -1.31330000
C        1.75500000      -1.02590000      -1.07550000
N        2.38220000      -1.25840000       0.12060000
C        2.51080000      -1.62490000      -2.25090000
C        1.86140000      -1.54910000      -3.60880000
O        3.59610000      -2.13500000      -2.06070000
H        1.36690000       1.71060000       0.32410000
H        0.18170000       2.20410000      -0.88960000
H       -0.29760000       2.07410000       0.81570000
H        0.02980000      -0.41320000       0.72910000
H       -1.15100000       0.12580000      -0.46020000
H        2.18450000      -0.67620000       0.91480000
H        3.31710000      -1.63010000       0.03700000
H        1.60770000      -0.51390000      -3.84940000
H        2.53620000      -1.96940000      -4.35510000
H        0.91500000      -2.09790000      -3.59950000
