11
Properties=species:S:1:pos:R:3 gdb_130557=T pbc="F F F"
O        0.01390000      -0.05570000       0.00340000
C        0.01150000       1.14790000       0.00690000
C        1.17830000       1.98310000       0.00110000
C        2.19880000       2.61720000      -0.00440000
N       -1.22730000       1.85310000       0.01830000
C       -2.48640000       1.34180000       0.02660000
N       -3.34230000       2.32610000       0.03420000
N       -2.58480000       3.47710000       0.03280000
N       -1.33410000       3.21370000       0.02380000
H        3.09490000       3.19050000      -0.00960000
H       -2.69830000       0.28630000       0.02500000
