17
Properties=species:S:1:pos:R:3 gdb_45755=T pbc="F F F"
O       -0.26820000      -0.00280000       0.26320000
C       -0.16690000       1.19510000       0.14310000
N       -1.20700000       2.09900000       0.02950000
C       -0.73400000       3.41640000      -0.07320000
C        0.60120000       3.45690000      -0.05320000
C        1.12820000       2.04680000       0.08560000
C        2.01410000       1.79950000       1.29280000
C        2.92070000       0.62990000       1.32050000
N        3.47050000       1.99590000       1.21050000
H       -2.17370000       1.82060000       0.05540000
H       -1.44420000       4.22660000      -0.15820000
H        1.21380000       4.34330000      -0.11050000
H        1.67660000       1.72950000      -0.81340000
H        1.58800000       2.14600000       2.23180000
H        3.12980000       0.12620000       2.25920000
H        2.93480000      -0.01670000       0.44770000
H        3.74150000       2.17830000       0.24650000
