18
Properties=species:S:1:pos:R:3 gdb_51629=T pbc="F F F"
N       -0.07930000       1.23120000       0.14570000
C       -0.06010000      -0.02870000       0.09880000
O       -1.22040000      -0.71380000      -0.01260000
C       -1.11990000      -2.12380000       0.01740000
O       -0.81720000      -2.60310000       1.32680000
C       -2.01170000      -3.35870000       1.64720000
C       -2.22800000      -4.18540000       0.35620000
C       -2.49350000      -2.75480000      -0.21290000
C       -3.15650000      -2.43800000       1.16850000
H        0.87160000       1.58820000       0.21440000
H        0.82790000      -0.67260000       0.13300000
H       -0.33620000      -2.44660000      -0.67980000
H       -1.92080000      -3.77420000       2.64850000
H       -1.37230000      -4.75020000      -0.02180000
H       -3.12900000      -4.80040000       0.37080000
H       -2.97350000      -2.56350000      -1.17020000
H       -4.14240000      -2.89470000       1.26450000
H       -3.15590000      -1.40490000       1.51520000
