21
Properties=species:S:1:pos:R:3 gdb_107264=T pbc="F F F"
C       -0.29510000       1.48020000      -0.02300000
C        0.20090000       0.02890000       0.01630000
C        0.80740000      -0.43440000      -1.28740000
C       -0.03870000      -0.96620000      -2.41890000
C        0.92330000      -1.89090000      -1.70880000
C        2.41250000      -1.89570000      -2.10310000
C        2.62720000      -0.63560000      -2.96900000
C        2.26960000      -0.02280000      -1.59880000
O        3.01340000      -1.13940000      -0.98590000
H        0.51890000       2.17530000      -0.25640000
H       -1.06910000       1.61120000      -0.78660000
H       -0.71800000       1.77930000       0.94120000
H        0.94870000      -0.09090000       0.81040000
H       -0.63360000      -0.63310000       0.27950000
H       -1.08790000      -1.11830000      -2.17790000
H        0.11840000      -0.66900000      -3.44870000
H        0.54590000      -2.69640000      -1.08940000
H        2.89930000      -2.85070000      -2.29850000
H        3.68590000      -0.49610000      -3.18470000
H        2.02270000      -0.44380000      -3.85580000
H        2.60940000       0.96000000      -1.27150000
