13
Properties=species:S:1:pos:R:3 gdb_130599=T pbc="F F F"
O        0.03820000      -0.05620000       0.00250000
C       -0.01830000       1.16300000       0.01010000
C       -1.24530000       1.94120000       0.03010000
C       -1.18980000       3.29460000       0.03610000
N        0.00880000       3.93660000       0.02330000
N        1.20130000       3.33260000       0.00420000
C        1.20890000       2.02160000      -0.00250000
C        2.47870000       1.38080000      -0.02280000
C        3.53780000       0.81090000      -0.03990000
H       -2.19360000       1.41960000       0.04000000
H       -2.06100000       3.93990000       0.05090000
H        0.06250000       4.94240000       0.02760000
H        4.47090000       0.30390000      -0.05500000
