18
Properties=species:S:1:pos:R:3 gdb_90572=T pbc="F F F"
O       -0.25400000       1.63610000       0.19050000
C       -0.21920000       0.23720000       0.13000000
C        0.22960000      -0.59420000       1.38130000
C       -1.06330000      -1.40910000       1.28090000
C       -2.24620000      -0.52180000       1.38490000
O       -2.18060000       0.61530000       2.23010000
C       -3.16080000       1.53240000       2.07100000
N       -3.01030000       2.68770000       2.55330000
C       -1.53940000      -0.55360000       0.06870000
H       -0.70410000       1.89160000       1.00460000
H        0.40400000      -0.00890000      -0.73320000
H        1.13070000      -1.18170000       1.19620000
H        0.35480000      -0.02630000       2.30600000
H       -1.14520000      -2.47820000       1.43330000
H       -3.21340000      -1.01930000       1.41660000
H       -4.03250000       1.15500000       1.52070000
H       -3.84010000       3.25220000       2.38320000
H       -2.04980000      -0.85300000      -0.83990000
