20
Properties=species:S:1:pos:R:3 gdb_13451=T pbc="F F F"
C       -0.08020000       1.59120000      -0.09770000
C        0.18460000       0.10100000      -0.09500000
C        1.58920000      -0.43060000       0.05770000
O        2.61280000       0.49260000       0.25720000
C        0.57970000      -0.66440000       1.16190000
C        0.73170000       0.00270000       2.51580000
C        1.76110000      -0.67990000       3.41300000
O        3.06450000      -0.45340000       2.86820000
H        0.72480000       2.13710000       0.39740000
H       -0.13520000       1.96200000      -1.12680000
H       -1.02810000       1.83710000       0.39400000
H       -0.44760000      -0.46120000      -0.77790000
H        1.87000000      -1.29030000      -0.55280000
H        3.06350000       0.23010000       1.07480000
H        0.18870000      -1.67840000       1.22690000
H        1.01990000       1.05180000       2.40700000
H       -0.23120000      -0.00460000       3.04220000
H        1.70430000      -0.26770000       4.43110000
H        1.55300000      -1.75840000       3.47480000
H        3.69460000      -1.03430000       3.30290000
