15
Properties=species:S:1:pos:R:3 gdb_127440=T pbc="F F F"
C       -0.17890000       1.38900000      -0.02910000
N       -0.04670000      -0.05460000       0.01740000
N       -0.17700000      -0.80200000      -1.09280000
C        0.00680000      -2.04760000      -0.65460000
C       -0.04950000      -3.23270000      -1.55710000
N        0.24820000      -2.13600000       0.68030000
C        0.20800000      -0.87060000       1.07160000
C        0.39790000      -0.38520000       2.39330000
N        0.54630000       0.05200000       3.45440000
H       -0.03650000       1.78590000       0.97650000
H        0.57490000       1.80650000      -0.70010000
H       -1.17300000       1.65640000      -0.39360000
H        0.89900000      -3.77740000      -1.53530000
H       -0.83120000      -3.92590000      -1.23250000
H       -0.25580000      -2.91630000      -2.58050000
