18
Properties=species:S:1:pos:R:3 gdb_109131=T pbc="F F F"
C        0.02420000       1.60170000       0.13150000
C        0.00570000       0.07470000      -0.06340000
C       -1.37270000      -0.52430000      -0.05680000
C       -1.98470000      -1.02380000      -1.13020000
N       -3.28130000      -1.53960000      -1.02940000
C       -4.14840000      -1.19140000      -0.00770000
O       -5.33190000      -1.40530000      -0.04400000
O       -3.57590000      -0.54850000       1.03430000
C       -2.14820000      -0.61760000       1.23000000
H        1.05160000       1.97840000       0.13610000
H       -0.52190000       2.10220000      -0.67360000
H       -0.43900000       1.89460000       1.07910000
H        0.49620000      -0.17560000      -1.01090000
H        0.61320000      -0.39090000       0.72600000
H       -1.54120000      -1.05910000      -2.11870000
H       -3.74480000      -1.90150000      -1.84650000
H       -1.91830000      -1.55420000       1.76240000
H       -1.92100000       0.20790000       1.90910000
