21
Properties=species:S:1:pos:R:3 gdb_92512=T pbc="F F F"
C       -0.52150000       1.50180000      -0.07610000
C        0.02050000       0.07680000      -0.06950000
C        0.86130000      -0.36290000      -1.28350000
C        1.69190000      -1.58040000      -0.80020000
C        3.22590000      -1.48030000      -1.02030000
C        3.37420000      -0.87450000       0.40440000
C        1.90470000      -1.32080000       0.71730000
C        0.92750000      -0.23180000       1.13360000
O        0.87650000       0.31450000       2.20760000
H        0.28450000       2.22270000      -0.25110000
H       -1.27480000       1.64120000      -0.85710000
H       -0.97150000       1.73790000       0.89190000
H       -0.82090000      -0.62860000       0.03530000
H        0.24840000      -0.59650000      -2.15790000
H        1.52890000       0.45830000      -1.57510000
H        1.21980000      -2.52330000      -1.08610000
H        3.69850000      -2.46310000      -1.09640000
H        3.56380000      -0.86990000      -1.86270000
H        4.14520000      -1.30560000       1.04500000
H        3.49740000       0.21160000       0.41150000
H        1.85420000      -2.18010000       1.38890000
