17
Properties=species:S:1:pos:R:3 gdb_117740=T pbc="F F F"
C        0.15790000       1.43080000       0.13890000
O        0.21530000       0.02070000       0.09120000
C        0.59940000      -0.48710000      -1.17050000
C        0.62790000      -2.01550000      -1.01180000
O        1.31230000      -2.38740000       0.17350000
C       -0.82000000      -2.57440000      -0.92650000
O       -1.79000000      -2.03560000      -1.38140000
C        1.25900000      -2.65180000      -2.16520000
C        1.72320000      -3.18570000      -3.13630000
H        1.13430000       1.88170000      -0.09280000
H       -0.58640000       1.82400000      -0.56780000
H       -0.13270000       1.70900000       1.15410000
H       -0.12520000      -0.21510000      -1.94840000
H        1.59670000      -0.12200000      -1.45410000
H        1.11020000      -1.68340000       0.80720000
H       -0.85830000      -3.53950000      -0.37830000
H        2.14770000      -3.65670000      -3.98880000
