19
Properties=species:S:1:pos:R:3 gdb_82602=T pbc="F F F"
C       -0.10080000       1.61640000      -0.10800000
C        0.03070000       0.10800000       0.01420000
C        1.18310000      -0.63740000      -0.71340000
O        2.35570000       0.05730000      -0.23730000
C        2.23070000      -0.31740000       1.14080000
C        2.44310000      -1.85460000       1.05240000
O        2.31110000      -2.55330000       2.27240000
C        1.08040000      -1.79480000       0.35500000
C        0.66410000      -0.56560000       1.24640000
H        0.86990000       2.10110000       0.02070000
H       -0.49360000       1.90060000      -1.09070000
H       -0.78720000       2.01150000       0.64880000
H       -0.91820000      -0.39780000      -0.19990000
H        1.23390000      -0.78830000      -1.79090000
H        2.80470000       0.34160000       1.79190000
H        3.32020000      -2.17740000       0.47590000
H        3.10980000      -2.39920000       2.78710000
H        0.45180000      -2.66110000       0.16110000
H        0.20290000      -0.64560000       2.22670000
