16
Properties=species:S:1:pos:R:3 gdb_23095=T pbc="F F F"
O        0.06180000       1.29760000       0.00730000
N        0.08010000      -0.09970000       0.00340000
C       -1.08490000      -0.62130000       0.01110000
C       -1.22930000      -2.13720000       0.00830000
C       -2.75600000      -2.39580000       0.01860000
C       -3.35810000      -1.02210000       0.02740000
C       -2.44270000      -0.02790000       0.02340000
C       -2.77450000       1.35160000       0.03010000
C       -3.13060000       2.50140000       0.03640000
H        1.00080000       1.51090000       0.00040000
H       -0.74680000      -2.56570000      -0.87400000
H       -0.73440000      -2.57010000       0.88150000
H       -3.08960000      -2.96860000      -0.85600000
H       -3.07680000      -2.97440000       0.89400000
H       -4.42800000      -0.84930000       0.03610000
H       -3.41270000       3.52480000       0.04200000
