14
Properties=species:S:1:pos:R:3 gdb_25065=T pbc="F F F"
O       -0.11830000       0.02340000      -0.27080000
C       -0.07380000       1.20730000      -0.08830000
N       -1.04400000       2.17160000      -0.26540000
C       -0.53310000       3.43720000       0.03070000
C       -1.35830000       4.68410000      -0.05490000
C       -2.08370000       4.80120000      -1.31950000
C       -2.69360000       4.85880000      -2.35270000
C        0.73110000       3.23640000       0.42320000
O        1.03790000       1.89300000       0.37360000
H       -1.92000000       1.97940000      -0.72040000
H       -2.08130000       4.71190000       0.77310000
H       -0.69850000       5.54720000       0.08660000
H       -3.22440000       4.92930000      -3.27020000
H        1.50350000       3.90370000       0.76300000
