19
Properties=species:S:1:pos:R:3 gdb_32644=T pbc="F F F"
C       -0.13430000       1.54920000       0.06940000
C        0.10490000       0.04080000      -0.02830000
N        0.72890000      -0.51660000       1.16130000
C        2.03230000      -0.88940000       1.30090000
N        2.30540000      -1.31390000       2.51430000
C        1.11960000      -1.21030000       3.20440000
C        1.01680000      -1.61060000       4.64020000
O       -0.31530000      -1.37850000       5.07500000
C        0.13280000      -0.71910000       2.39080000
H        0.80860000       2.08230000       0.22070000
H       -0.59780000       1.91770000      -0.85090000
H       -0.79770000       1.78800000       0.90530000
H       -0.83980000      -0.48460000      -0.20530000
H        0.76030000      -0.18670000      -0.87440000
H        2.72960000      -0.83220000       0.47710000
H        1.29710000      -2.67120000       4.74690000
H        1.74250000      -1.03180000       5.23440000
H       -0.37850000      -1.65100000       5.99410000
H       -0.90760000      -0.50910000       2.56840000
