15
Properties=species:S:1:pos:R:3 gdb_1267=T pbc="F F F"
C        0.07080000       1.47410000      -0.18280000
C        0.01820000      -0.04560000       0.03140000
O        0.75120000      -0.43850000       1.19010000
C       -1.36400000      -0.53500000       0.06610000
C       -2.50880000      -0.90930000       0.12330000
C       -3.87210000      -1.43360000       0.19700000
O       -4.01790000      -2.72260000      -0.38120000
H        1.11340000       1.80170000      -0.19860000
H       -0.40790000       1.75200000      -1.12620000
H       -0.44990000       1.99320000       0.62850000
H        0.54250000      -0.53480000      -0.79850000
H        0.25710000      -0.13370000       1.95940000
H       -4.20520000      -1.42430000       1.24760000
H       -4.55730000      -0.78040000      -0.35480000
H       -3.33410000      -3.28620000      -0.00430000
