17
Properties=species:S:1:pos:R:3 gdb_87023=T pbc="F F F"
C        0.19920000       1.24940000      -0.24860000
C        0.40900000      -0.18550000       0.15030000
O        1.73460000      -0.61660000       0.42170000
C        0.81490000      -0.58920000       1.53220000
C        1.04420000       0.40900000       2.54360000
C        1.24650000       1.22510000       3.40150000
C        0.35050000      -1.95140000       2.03970000
C        0.76290000      -3.15630000       1.22190000
O       -0.30160000      -2.02790000       3.05150000
H        0.77110000       1.92150000       0.39290000
H        0.51370000       1.39580000      -1.28700000
H       -0.86210000       1.50780000      -0.17640000
H       -0.18480000      -0.91440000      -0.40510000
H        1.42350000       1.94270000       4.16440000
H        0.48830000      -3.05100000       0.16850000
H        1.85320000      -3.25640000       1.24630000
H        0.29580000      -4.04630000       1.64430000
