21
Properties=species:S:1:pos:R:3 gdb_81970=T pbc="F F F"
C       -0.10310000       1.58680000      -0.02590000
C        0.04300000       0.06580000       0.00890000
C        0.78620000      -0.54570000      -1.16730000
O        2.22510000      -0.48640000      -1.03160000
C        1.53650000      -1.71680000      -0.70830000
C        1.30690000      -1.90660000       0.78200000
C        2.49490000      -2.46740000       1.56320000
C        0.83050000      -0.49140000       1.23580000
O        1.90690000       0.34690000       1.61470000
H        0.87310000       2.07620000      -0.04460000
H       -0.66490000       1.90320000      -0.91100000
H       -0.63570000       1.94790000       0.85900000
H       -0.95890000      -0.38850000       0.01650000
H        0.42210000      -0.43520000      -2.18590000
H        1.78130000      -2.55630000      -1.35460000
H        0.45630000      -2.59710000       0.88210000
H        3.36550000      -1.81340000       1.47980000
H        2.25350000      -2.56100000       2.62630000
H        2.77140000      -3.45950000       1.19090000
H        0.18840000      -0.55680000       2.11860000
H        2.47570000       0.40560000       0.83460000
