21
Properties=species:S:1:pos:R:3 gdb_53701=T pbc="F F F"
C        0.01380000       1.52210000       0.01020000
C        0.02410000       0.06580000       0.00220000
C        0.04440000      -1.13820000      -0.00460000
C        0.03080000      -2.59720000      -0.01240000
C       -1.39300000      -3.18970000      -0.00170000
C       -1.39040000      -4.72000000      -0.01010000
C       -2.81510000      -5.31040000       0.00070000
C       -2.82880000      -6.76810000      -0.00700000
C       -2.81050000      -7.97010000      -0.01400000
H        1.03170000       1.92780000       0.00250000
H       -0.50720000       1.92330000      -0.86640000
H       -0.49010000       1.91380000       0.90090000
H        0.56870000      -2.96750000      -0.89570000
H        0.58580000      -2.97710000       0.85620000
H       -1.92490000      -2.82000000       0.88330000
H       -1.94210000      -2.81040000      -0.87200000
H       -0.85930000      -5.09050000      -0.89500000
H       -0.84210000      -5.10000000       0.86020000
H       -3.35430000      -4.94460000       0.88460000
H       -3.37150000      -4.93510000      -0.86840000
H       -2.80710000      -9.03170000      -0.02020000
