19
Properties=species:S:1:pos:R:3 gdb_124688=T pbc="F F F"
C       -0.01340000       1.59580000      -0.05820000
C        0.03330000       0.05920000      -0.02110000
C        0.68580000      -0.50640000      -1.29060000
O       -0.08220000      -0.09020000      -2.41000000
C        0.73240000      -0.46610000       1.20310000
C        0.24430000      -1.35770000       2.13880000
N        1.22790000      -1.54650000       3.05240000
N        2.33980000      -0.83800000       2.78530000
C        2.04280000      -0.18340000       1.66630000
H        0.99780000       2.01840000      -0.05390000
H       -0.51860000       1.93720000      -0.96420000
H       -0.54230000       1.99020000       0.81410000
H       -0.99890000      -0.31360000      -0.01290000
H        1.72450000      -0.14350000      -1.36000000
H        0.72560000      -1.60410000      -1.21880000
H        0.35300000      -0.40300000      -3.20800000
H       -0.71010000      -1.85470000       2.21800000
H        1.20580000      -2.12830000       3.87220000
H        2.77890000       0.47550000       1.22840000
