24
Properties=species:S:1:pos:R:3 gdb_11132=T pbc="F F F"
C        0.10260000       1.51210000      -0.11180000
C        0.04170000      -0.00030000       0.12680000
C       -1.37120000      -0.56440000       0.05220000
C       -2.10430000      -0.60290000      -1.32020000
C       -2.68590000      -1.99150000      -0.93490000
C       -2.79250000      -3.07130000      -2.00390000
C       -3.26190000      -4.42250000      -1.45440000
C       -1.57610000      -2.10180000       0.15070000
H        1.13070000       1.88450000      -0.06180000
H       -0.29830000       1.77420000      -1.09710000
H       -0.48480000       2.05450000       0.63760000
H        0.67100000      -0.51470000      -0.61240000
H        0.47300000      -0.23520000       1.10940000
H       -2.00540000      -0.05980000       0.79200000
H       -2.80740000       0.20000000      -1.55670000
H       -1.38830000      -0.69140000      -2.14660000
H       -3.66130000      -1.86080000      -0.44930000
H       -3.48200000      -2.73450000      -2.79000000
H       -1.81400000      -3.19150000      -2.48880000
H       -3.31840000      -5.17830000      -2.24410000
H       -2.57780000      -4.79630000      -0.68470000
H       -4.25570000      -4.34070000      -1.00000000
H       -0.70160000      -2.64110000      -0.23370000
H       -1.84110000      -2.52250000       1.12420000
