17
Properties=species:S:1:pos:R:3 gdb_113126=T pbc="F F F"
C       -0.11390000       1.56990000      -0.26740000
C       -0.01680000       0.15070000       0.28400000
N       -1.31470000      -0.51740000       0.14890000
C       -1.58260000      -1.24960000      -1.06370000
C       -1.35580000      -1.99500000       0.23590000
C       -0.15300000      -2.77390000       0.39130000
C        0.84190000      -3.42840000       0.55100000
C       -2.50990000      -2.51240000       0.94920000
N       -3.43380000      -2.93360000       1.50050000
H        0.83810000       2.09190000      -0.13490000
H       -0.34840000       1.56250000      -1.33690000
H       -0.89610000       2.13290000       0.24830000
H        0.78620000      -0.40500000      -0.22260000
H        0.22670000       0.17160000       1.35110000
H       -2.59200000      -1.18410000      -1.45900000
H       -0.78820000      -1.35540000      -1.80120000
H        1.71850000      -4.01300000       0.68730000
