18
Properties=species:S:1:pos:R:3 gdb_97038=T pbc="F F F"
C       -0.02220000       1.41790000       0.04960000
N       -0.05000000      -0.03340000       0.01150000
C        0.56850000      -0.60100000      -0.93890000
N        1.31030000      -0.06510000      -1.98850000
C        1.68000000      -1.10440000      -2.93690000
C        1.28000000      -2.39260000      -2.21340000
O        1.48620000      -3.52820000      -2.57180000
N        0.63300000      -1.99420000      -1.06620000
C        0.07900000      -2.90500000      -0.08610000
H        0.99380000       1.82940000      -0.05440000
H       -0.64420000       1.86810000      -0.74100000
H       -0.42560000       1.76120000       1.00550000
H        1.03200000       0.84030000      -2.33040000
H        1.13700000      -1.04080000      -3.88830000
H        2.75220000      -1.11650000      -3.15850000
H        0.31500000      -3.91720000      -0.41630000
H        0.51550000      -2.71330000       0.89720000
H       -1.00370000      -2.77440000      -0.01140000
