17
Properties=species:S:1:pos:R:3 gdb_44221=T pbc="F F F"
N        0.32480000       0.93610000      -0.56090000
C        0.08090000      -0.19040000      -0.07070000
O        0.93080000      -1.11810000       0.51780000
C       -0.18560000      -2.02560000       0.78850000
C       -1.16480000      -1.02770000       0.10950000
C       -1.40410000      -2.05960000      -1.04130000
C       -0.42050000      -3.01900000      -0.34760000
C        0.55410000      -3.98540000      -0.89130000
N       -0.66800000      -4.45130000      -0.20590000
H        1.31960000       1.16120000      -0.50570000
H       -0.19950000      -2.34880000       1.83050000
H       -2.02540000      -0.56540000       0.58590000
H       -2.42250000      -2.45360000      -1.04750000
H       -1.14350000      -1.71520000      -2.04380000
H        0.57640000      -4.18020000      -1.96000000
H        1.51360000      -4.07980000      -0.38950000
H       -0.44450000      -4.75800000       0.73890000
