18
Properties=species:S:1:pos:R:3 gdb_72672=T pbc="F F F"
C       -0.15930000       1.55050000      -0.02610000
C        0.01320000       0.05920000       0.03280000
C       -1.21220000      -0.87660000       0.13370000
N       -0.48440000      -1.75690000       1.09700000
C        0.65120000      -0.78970000       1.19540000
C        1.73620000      -1.12720000       0.15060000
O        1.00590000      -0.43770000      -0.89080000
C        1.01060000      -0.31050000       2.49940000
C        1.29720000       0.08990000       3.59770000
H        0.80310000       2.05580000       0.09250000
H       -0.57830000       1.83950000      -0.99680000
H       -0.83770000       1.89720000       0.75900000
H       -2.09350000      -0.37930000       0.55730000
H       -1.49040000      -1.37810000      -0.79790000
H       -0.96720000      -1.86510000       1.98130000
H        2.70900000      -0.65610000       0.33500000
H        1.85420000      -2.19590000      -0.05090000
H        1.55730000       0.44410000       4.56460000
