20
Properties=species:S:1:pos:R:3 gdb_92270=T pbc="F F F"
C        0.13060000       1.58360000      -0.04700000
C        0.04450000       0.06730000       0.03220000
C        0.91570000      -0.77670000      -0.95420000
C        1.40970000      -1.64570000       0.22410000
O        2.82420000      -1.53560000       0.49620000
C        2.91700000      -0.49870000       1.36830000
N        1.86980000       0.06090000       1.81470000
C        0.72440000      -0.67200000       1.23570000
C       -0.18130000      -1.19970000       2.33500000
H        1.16440000       1.92430000       0.05750000
H       -0.25680000       1.94140000      -1.00730000
H       -0.45400000       2.05780000       0.74820000
H       -1.00400000      -0.24520000      -0.02760000
H        0.37790000      -1.30390000      -1.74530000
H        1.73500000      -0.21160000      -1.40670000
H        1.14370000      -2.70330000       0.21860000
H        3.93410000      -0.22670000       1.62990000
H       -0.61920000      -0.36850000       2.89680000
H       -0.99590000      -1.80050000       1.91730000
H        0.38060000      -1.82110000       3.03960000
