17
Properties=species:S:1:pos:R:3 gdb_106256=T pbc="F F F"
C        0.03560000       1.33810000      -0.19620000
O       -0.02550000      -0.03180000       0.18280000
C       -1.28970000      -0.55750000       0.11000000
C       -2.38540000      -0.34050000       1.17330000
C       -2.66560000      -1.85970000       1.07750000
O       -3.35850000      -2.60240000       1.71240000
C       -1.62470000      -2.07970000       0.01870000
C       -1.86750000      -1.09940000      -1.13800000
O       -3.14010000      -0.71690000      -1.55930000
H        1.08190000       1.63880000      -0.11850000
H       -0.31060000       1.48240000      -1.22830000
H       -0.57030000       1.96630000       0.47050000
H       -1.96290000      -0.10030000       2.15340000
H       -3.20460000       0.33830000       0.93120000
H       -0.99240000      -2.94950000      -0.11250000
H       -1.13370000      -1.23690000      -1.93390000
H       -3.57290000      -1.48100000      -1.95580000
