17
Properties=species:S:1:pos:R:3 gdb_13253=T pbc="F F F"
O       -0.22750000      -0.06350000       0.13740000
C        0.01930000       1.10970000       0.04630000
C        1.37310000       1.67490000      -0.35430000
N        1.21360000       2.93260000      -1.06820000
C        2.41500000       3.71660000      -1.21990000
C        3.50450000       3.36110000      -2.27560000
O        3.43550000       4.68830000      -2.83250000
C        2.28500000       5.02080000      -2.03160000
H       -0.73890000       1.89580000       0.26310000
H        1.90920000       1.88360000       0.58420000
H        1.94240000       0.89150000      -0.87880000
H        0.78960000       2.76930000      -1.97680000
H        2.84530000       3.87830000      -0.22700000
H        4.50970000       3.11880000      -1.91220000
H        3.18730000       2.59180000      -2.99620000
H        1.36240000       5.07260000      -2.62860000
H        2.41080000       5.96560000      -1.49190000
