18
Properties=species:S:1:pos:R:3 gdb_102203=T pbc="F F F"
C        0.00020000       1.46110000       0.20450000
N       -0.03700000       0.02150000      -0.03010000
C        0.66190000      -0.50040000      -1.18660000
C       -0.04960000      -0.09990000      -2.50040000
C       -1.42920000      -0.57500000      -2.55970000
N       -2.51570000      -0.96000000      -2.63130000
C        2.17100000      -0.10840000      -1.30470000
C        2.90280000      -0.45520000      -0.09190000
N        3.44140000      -0.74090000       0.89000000
H        1.00860000       1.88860000       0.32660000
H       -0.50010000       1.99410000      -0.61040000
H       -0.56250000       1.67510000       1.11630000
H        0.25420000      -0.47810000       0.80100000
H        0.61870000      -1.59140000      -1.10710000
H       -0.04590000       0.98910000      -2.62040000
H        0.49660000      -0.50980000      -3.35720000
H        2.62840000      -0.62350000      -2.15670000
H        2.27770000       0.96680000      -1.48660000
