19
Properties=species:S:1:pos:R:3 gdb_62892=T pbc="F F F"
C       -0.08380000       1.55750000      -0.01990000
C       -0.05150000       0.03980000      -0.01300000
O       -1.31250000      -0.51830000      -0.28150000
C        1.22250000      -0.66850000      -0.61860000
O        1.98540000      -0.13700000       0.53680000
C        0.73640000      -0.67810000       1.12570000
C        0.90140000      -1.90870000       0.22300000
C        0.16410000      -3.17860000       0.01010000
C        1.63260000      -3.18830000       0.42180000
H        0.89580000       1.96750000       0.22310000
H       -0.37830000       1.92770000      -1.01070000
H       -0.81930000       1.92120000       0.70500000
H       -1.75060000       0.03430000      -0.93620000
H        1.67950000      -0.58660000      -1.60650000
H        0.61350000      -0.61000000       2.20770000
H       -0.57820000      -3.47140000       0.74500000
H       -0.08560000      -3.46370000      -1.00670000
H        2.36930000      -3.48340000      -0.31850000
H        1.87670000      -3.49200000       1.43480000
