17
Properties=species:S:1:pos:R:3 gdb_20187=T pbc="F F F"
C        0.02960000       1.53210000      -0.06630000
C        1.55160000       1.53950000      -0.12070000
C        2.16320000       0.66940000       0.96190000
O        1.75580000       0.53570000       2.29310000
C        0.37440000       0.27010000       2.52770000
C       -0.30930000      -0.49370000       1.38370000
N        0.02130000       0.03240000       0.05400000
C        1.48340000      -0.00090000      -0.17150000
H       -0.45680000       2.08870000       0.74050000
H       -0.43020000       1.82340000      -1.01610000
H        2.15890000       2.21150000      -0.71500000
H        3.24890000       0.66250000       0.93040000
H        0.32660000      -0.31210000       3.45400000
H       -0.14840000       1.21880000       2.71580000
H       -0.00340000      -1.54620000       1.39290000
H       -1.39460000      -0.46590000       1.53590000
H        1.91810000      -0.72820000      -0.85000000
