16
Properties=species:S:1:pos:R:3 gdb_128201=T pbc="F F F"
C        0.06680000       1.42440000       0.02540000
N        0.01620000      -0.02820000       0.10870000
C       -1.23200000      -0.62250000       0.03970000
C       -2.51420000      -0.10780000       0.04240000
C       -3.35870000      -1.25100000       0.02180000
C       -4.83000000      -1.23200000       0.01060000
O       -5.55270000      -2.19810000      -0.02950000
N       -2.66190000      -2.38860000       0.00340000
N       -1.38000000      -1.97990000       0.02140000
H        1.10790000       1.74580000       0.09710000
H       -0.36520000       1.82570000      -0.90360000
H       -0.47870000       1.85490000       0.87030000
H        0.71160000      -0.48100000      -0.46900000
H       -2.80620000       0.92880000       0.04400000
H       -5.24930000      -0.19970000       0.04390000
H       -0.64920000      -2.67220000       0.05670000
