18
Properties=species:S:1:pos:R:3 gdb_105825=T pbc="F F F"
O        0.09810000       1.38960000       0.03020000
C        0.02450000      -0.02570000      -0.09520000
C       -1.38700000      -0.52320000      -0.02620000
C       -2.05330000      -1.04090000       1.23240000
O       -3.20180000      -0.58170000       1.84870000
C       -1.93110000      -1.98270000       0.05650000
C       -2.87530000      -1.65400000      -1.12480000
N       -3.77620000      -0.52730000      -0.73820000
C       -2.37900000      -0.26840000      -1.19350000
H       -0.35840000       1.62700000       0.84490000
H        0.47600000      -0.25200000      -1.06910000
H        0.63140000      -0.53660000       0.66980000
H       -1.30430000      -1.27800000       1.98860000
H       -3.82070000      -0.40890000       1.11600000
H       -1.36130000      -2.90370000       0.09760000
H       -3.16240000      -2.34060000      -1.91000000
H       -4.39500000      -0.34300000      -1.52640000
H       -2.18300000       0.37830000      -2.03840000
