22
Properties=species:S:1:pos:R:3 gdb_121615=T pbc="F F F"
C        0.16100000       0.53300000      -1.00540000
C        0.03500000      -0.17600000       0.35260000
C        0.45900000       0.74710000       1.50500000
C       -1.42120000      -0.60430000       0.55780000
O       -2.32490000       0.21320000       0.63680000
N       -1.62970000      -1.94870000       0.64240000
C       -2.94740000      -2.53850000       0.77210000
C       -3.19630000      -3.56570000      -0.32220000
O       -2.18220000      -4.55810000      -0.20040000
H        1.18260000       0.89490000      -1.15830000
H       -0.08920000      -0.13830000      -1.83350000
H       -0.52210000       1.38590000      -1.04280000
H        0.67990000      -1.06430000       0.35160000
H        0.43010000       0.22590000       2.46720000
H        1.47700000       1.11700000       1.34840000
H       -0.22070000       1.60130000       1.56290000
H       -0.85970000      -2.58620000       0.52070000
H       -3.05330000      -3.02730000       1.74950000
H       -3.67250000      -1.72410000       0.71440000
H       -4.20000000      -3.99970000      -0.19720000
H       -3.15440000      -3.07420000      -1.30540000
H       -2.24700000      -5.15630000      -0.95000000
