23
Properties=species:S:1:pos:R:3 gdb_93091=T pbc="F F F"
C       -0.00540000       1.57830000       0.07160000
C       -0.01430000       0.04370000       0.01370000
C        0.53480000      -0.43510000      -1.35030000
C        0.28250000      -1.88560000      -1.68530000
C        0.64080000      -2.93840000      -0.95050000
C        1.36080000      -2.88730000       0.37430000
C        0.67400000      -2.02820000       1.45340000
O        1.29730000      -2.23520000       2.72010000
C        0.76420000      -0.52140000       1.21170000
H        1.01570000       1.96840000      -0.01690000
H       -0.59750000       2.01050000      -0.74170000
H       -0.41750000       1.94160000       1.01860000
H       -1.05730000      -0.29370000       0.08900000
H        0.09620000       0.18750000      -2.13730000
H        1.61610000      -0.22830000      -1.37580000
H       -0.23410000      -2.07490000      -2.62380000
H        0.39530000      -3.92950000      -1.32480000
H        1.45520000      -3.90780000       0.76600000
H        2.38820000      -2.51610000       0.24990000
H       -0.38890000      -2.31800000       1.50260000
H        1.26320000      -3.17660000       2.91750000
H        1.82590000      -0.25190000       1.11890000
H        0.40740000      -0.03800000       2.12840000
