23
Properties=species:S:1:pos:R:3 gdb_81852=T pbc="F F F"
C       -0.17090000       1.56530000       0.00220000
C        0.02950000       0.04190000      -0.00770000
C        0.84720000      -0.47990000      -1.19250000
C        2.30300000      -0.08610000      -1.30940000
C        1.92700000      -1.40790000      -0.66340000
C        2.30970000      -2.72110000      -1.30430000
C        1.77860000      -1.31810000       0.82280000
C        0.77920000      -0.51430000       1.20180000
C        0.38730000      -0.16680000       2.60390000
H        0.78920000       2.09050000       0.02610000
H       -0.70730000       1.88940000      -0.89530000
H       -0.75400000       1.88780000       0.87090000
H       -0.97170000      -0.41690000      -0.03620000
H        0.32520000      -0.71660000      -2.11350000
H        2.73150000      -0.11940000      -2.30700000
H        2.70000000       0.69970000      -0.67520000
H        2.30470000      -2.64340000      -2.39620000
H        3.31690000      -3.03240000      -1.00170000
H        1.61660000      -3.52160000      -1.02130000
H        2.44140000      -1.84450000       1.50350000
H        0.99150000      -0.71260000       3.33390000
H        0.50540000       0.90520000       2.80620000
H       -0.66870000      -0.40260000       2.79230000
