14
Properties=species:S:1:pos:R:3 gdb_127921=T pbc="F F F"
C       -0.34940000       1.41070000      -0.02960000
N       -0.05130000      -0.01130000      -0.05650000
C        0.67310000      -0.54920000      -0.94240000
N        0.89920000      -1.92500000      -0.87690000
C        1.66950000      -2.58520000      -1.78090000
N        2.27700000      -2.07730000      -2.78830000
O        2.10380000      -0.67130000      -2.94650000
C        1.35940000       0.11120000      -2.11310000
O        1.28110000       1.28550000      -2.34340000
H        0.55700000       2.02180000       0.02650000
H       -0.89220000       1.73070000      -0.92520000
H       -0.96850000       1.61040000       0.84820000
H        0.45950000      -2.41310000      -0.10940000
H        1.78860000      -3.65430000      -1.64400000
