27
Properties=species:S:1:pos:R:3 gdb_101163=T pbc="F F F"
C       -0.17170000       1.61630000      -0.03120000
C       -0.15740000       0.09770000      -0.23460000
C        0.97300000      -0.42590000      -1.14550000
C        2.36660000      -0.15970000      -0.55220000
C        0.78870000      -1.91460000      -1.39990000
C       -0.15310000      -2.48520000      -2.44410000
C       -0.99150000      -1.62960000      -3.37230000
C        1.34670000      -2.64270000      -2.60880000
C        2.12460000      -1.95400000      -3.71210000
H        0.72500000       1.97160000       0.48560000
H       -0.23220000       2.14340000      -0.99040000
H       -1.03570000       1.92150000       0.56780000
H       -0.08430000      -0.40250000       0.74140000
H       -1.11800000      -0.21440000      -0.66080000
H        0.90520000       0.11740000      -2.09640000
H        2.47660000      -0.66090000       0.41730000
H        3.15250000      -0.53980000      -1.21130000
H        2.54900000       0.90780000      -0.39780000
H        0.83080000      -2.48680000      -0.47330000
H       -0.67120000      -3.39120000      -2.13700000
H       -0.49130000      -0.70480000      -3.66860000
H       -1.23340000      -2.17680000      -4.29070000
H       -1.93980000      -1.35030000      -2.89950000
H        1.72140000      -3.64260000      -2.40070000
H        1.78990000      -0.93010000      -3.89400000
H        3.19200000      -1.90930000      -3.46910000
H        2.02740000      -2.50130000      -4.65680000
