18
Properties=species:S:1:pos:R:3 gdb_10813=T pbc="F F F"
C       -0.09350000       1.56690000       0.02410000
C        0.01420000       0.03490000       0.00020000
C        0.66260000      -0.47570000      -1.29670000
C        0.95180000      -1.98000000      -1.23530000
C        1.80190000      -2.35370000      -0.02640000
O        2.58000000      -3.28650000      -0.04130000
C        1.58450000      -1.53630000       1.18750000
C        0.75890000      -0.48170000       1.20560000
H        0.89900000       2.02910000      -0.00690000
H       -0.66060000       1.92880000      -0.83910000
H       -0.59910000       1.91680000       0.93000000
H       -1.01070000      -0.36910000       0.05520000
H        0.02060000      -0.24380000      -2.15340000
H        1.60400000       0.06790000      -1.45260000
H        0.00690000      -2.53640000      -1.14760000
H        1.45280000      -2.34560000      -2.13520000
H        2.11930000      -1.86050000       2.07510000
H        0.60150000       0.05710000       2.13920000
