10
Properties=species:S:1:pos:R:3 gdb_1030=T pbc="F F F"
O       -0.13360000       0.02370000      -0.00100000
C        0.02300000       1.21810000       0.00630000
C        1.33790000       1.88030000      -0.00280000
N        2.53670000       1.37390000      -0.02020000
C        3.37490000       2.46510000      -0.02030000
C        2.62590000       3.60250000      -0.00330000
O        1.32110000       3.24580000       0.00770000
H       -0.82230000       1.93680000       0.02170000
H        4.44840000       2.36260000      -0.03260000
H        2.84300000       4.65720000       0.00270000
