21
Properties=species:S:1:pos:R:3 gdb_93760=T pbc="F F F"
C        0.01970000       1.58320000      -0.00460000
C        0.07680000       0.05570000      -0.01110000
C        0.77190000      -0.52170000      -1.25310000
C        0.78720000      -2.05290000      -1.23470000
C        1.26940000      -2.61530000       0.08070000
C        1.75830000      -4.03430000       0.06770000
C        1.24500000      -1.87440000       1.20160000
C        0.72740000      -0.49460000       1.26360000
O        0.78470000       0.15570000       2.29090000
H        1.02630000       2.01030000      -0.06830000
H       -0.56100000       1.95300000      -0.85530000
H       -0.43210000       1.94670000       0.91990000
H       -0.95450000      -0.33530000       0.00430000
H        0.27880000      -0.15940000      -2.16170000
H        1.80510000      -0.15160000      -1.28680000
H       -0.22390000      -2.44410000      -1.42980000
H        1.41040000      -2.44260000      -2.04910000
H        2.62630000      -4.13990000      -0.59550000
H        2.03910000      -4.38000000       1.06510000
H        0.98560000      -4.70620000      -0.32770000
H        1.60560000      -2.27200000       2.14650000
