15
Properties=species:S:1:pos:R:3 gdb_82694=T pbc="F F F"
O        0.15200000       1.42070000       0.08250000
C        0.02610000       0.03960000       0.01950000
C        0.20630000      -0.75980000       1.33670000
O       -0.75590000      -0.09970000       2.22120000
C       -1.77130000      -0.73790000       1.44460000
C       -0.88380000      -1.76980000       0.85560000
C       -1.37470000      -0.61360000      -0.04810000
C       -2.30400000      -0.64370000      -1.11730000
C       -3.09060000      -0.66210000      -2.02870000
H       -0.27570000       1.68470000       0.90900000
H        0.66470000      -0.33630000      -0.78270000
H        1.16860000      -0.95190000       1.80350000
H       -2.79270000      -0.74910000       1.79880000
H       -0.93890000      -2.84090000       0.73300000
H       -3.78040000      -0.67570000      -2.83560000
