16
Properties=species:S:1:pos:R:3 gdb_66523=T pbc="F F F"
C       -0.09720000       1.49560000      -0.09080000
C        0.09410000       0.02570000       0.03940000
C        0.65610000      -1.01710000      -0.85060000
C        1.23710000      -1.87880000       0.27810000
C        0.38200000      -0.93540000       1.23670000
C       -0.82610000      -1.81280000       0.75280000
N       -0.84130000      -0.99700000      -0.52120000
C        0.16980000      -2.96220000       0.52140000
O        0.16850000      -4.14480000       0.68510000
H        0.82680000       2.03740000       0.13870000
H       -0.39570000       1.74190000      -1.11470000
H       -0.88100000       1.85390000       0.58590000
H        0.92590000      -0.99100000      -1.89850000
H        2.30740000      -2.04750000       0.35280000
H        0.65250000      -0.72650000       2.26740000
H       -1.79480000      -1.92680000       1.23160000
