16
Properties=species:S:1:pos:R:3 gdb_26589=T pbc="F F F"
C       -0.01090000       1.53880000       0.03190000
C       -0.00150000       0.03580000       0.01440000
C       -1.16030000      -0.71560000       0.05300000
N       -2.40030000      -0.14000000       0.13970000
N       -1.19740000      -2.09500000       0.04660000
C       -0.05140000      -2.69380000       0.00570000
N        1.13520000      -2.05560000      -0.03150000
C        1.26670000      -0.64000000      -0.03260000
O        2.38430000      -0.14810000      -0.07100000
H        1.01800000       1.90220000       0.03510000
H       -0.51370000       1.96130000      -0.84950000
H       -0.52110000       1.93390000       0.91950000
H       -2.50480000       0.82070000      -0.13990000
H       -3.17440000      -0.75230000      -0.06190000
H       -0.01640000      -3.78060000      -0.00210000
H        2.00490000      -2.56940000      -0.06400000
