21
Properties=species:S:1:pos:R:3 gdb_71012=T pbc="F F F"
C       -0.13270000       1.51660000      -0.03170000
C        0.03890000       0.02290000      -0.00700000
C        0.73430000      -0.77410000      -1.17550000
C       -0.21930000      -1.82060000      -0.59120000
C       -0.90580000      -3.18710000      -0.64970000
C       -0.86160000      -3.15590000       0.92700000
C        0.31710000      -2.13170000       0.81740000
C        0.45410000      -0.67880000       1.33160000
O       -1.17060000      -0.74490000      -0.30470000
H        0.82350000       2.01420000       0.16020000
H       -0.51030000       1.85210000      -1.00140000
H       -0.84080000       1.83140000       0.74220000
H        0.43280000      -0.36370000      -2.14080000
H        1.80910000      -0.97350000      -1.13610000
H       -1.87650000      -3.23040000      -1.14780000
H       -0.25150000      -3.96450000      -1.05290000
H       -1.76720000      -2.71090000       1.34000000
H       -0.65160000      -4.09950000       1.43450000
H        1.27210000      -2.66430000       0.79970000
H        1.46620000      -0.43570000       1.66880000
H       -0.25070000      -0.40080000       2.12020000
