18
Properties=species:S:1:pos:R:3 gdb_67053=T pbc="F F F"
C       -0.08800000       1.55090000      -0.15200000
C       -0.10150000       0.03180000      -0.03450000
C       -1.16720000      -0.64490000       0.91970000
C       -0.33270000      -1.93330000       0.88970000
C        0.68630000      -0.76000000       1.02100000
C       -0.22920000      -0.16200000       2.13500000
N        1.88010000      -0.74880000       0.17450000
C        1.04210000      -0.55810000      -0.97470000
O        1.26990000      -0.69680000      -2.13780000
H        0.92870000       1.95680000      -0.10960000
H       -0.50970000       1.83390000      -1.12240000
H       -0.69050000       2.03780000       0.61940000
H       -2.25530000      -0.55820000       0.89100000
H       -0.42510000      -2.60310000       1.74720000
H       -0.31570000      -2.47970000      -0.05690000
H       -0.16550000       0.90720000       2.32880000
H       -0.33200000      -0.73270000       3.06170000
H        2.61430000      -1.44980000       0.18990000
