17
Properties=species:S:1:pos:R:3 gdb_46711=T pbc="F F F"
N       -0.08850000       1.27970000      -0.27220000
C       -0.00850000       0.05610000       0.04490000
O        1.16680000      -0.54240000       0.37000000
C        1.11220000      -1.89840000       0.82780000
C       -0.23950000      -2.54100000       0.64870000
C       -1.10200000      -2.23590000      -0.59890000
C       -2.29110000      -2.57800000       0.31450000
N       -1.41020000      -1.74250000       1.25860000
C       -1.21860000      -0.81890000       0.02220000
H        0.83480000       1.71710000      -0.22780000
H        1.87590000      -2.45640000       0.27430000
H        1.38380000      -1.90910000       1.89070000
H       -0.21290000      -3.57940000       0.99500000
H       -0.92380000      -2.50500000      -1.64510000
H       -3.25480000      -2.11030000       0.09810000
H       -2.40960000      -3.61500000       0.64070000
H       -2.09970000      -0.22350000      -0.21440000
