17
Properties=species:S:1:pos:R:3 gdb_33900=T pbc="F F F"
C        0.00430000      -1.20020000      -0.13560000
C        0.04810000      -0.00290000      -0.02810000
C        0.06500000       1.40640000       0.15690000
O        0.23150000       2.26100000      -0.99280000
C        1.15350000       2.41920000       0.08410000
C        0.48870000       3.28690000       1.17650000
C       -0.52680000       4.36420000       0.69220000
C       -1.67810000       3.30960000       0.76080000
C       -0.66570000       2.23590000       1.25310000
H       -0.02730000      -2.25630000      -0.24250000
H        2.20530000       2.30130000      -0.15440000
H        1.11950000       3.50180000       2.03860000
H       -0.64430000       5.18740000       1.40030000
H       -0.32740000       4.77360000      -0.29930000
H       -2.44460000       3.54310000       1.50310000
H       -2.16210000       3.08480000      -0.19080000
H       -0.87540000       1.68260000       2.16730000
