10
Properties=species:S:1:pos:R:3 gdb_130684=T pbc="F F F"
O        0.26610000       0.10200000      -0.00120000
C        0.01170000       1.26550000       0.00970000
N       -1.21780000       1.90000000       0.03010000
C       -1.13270000       3.29960000       0.03730000
C        0.31500000       3.47550000       0.01850000
O        0.97810000       2.25770000       0.00200000
N        0.97820000       4.58200000       0.01520000
N        1.53380000       5.57580000       0.01330000
O       -2.03680000       4.09530000       0.05450000
H       -2.08720000       1.39020000       0.03930000
