19
Properties=species:S:1:pos:R:3 gdb_98511=T pbc="F F F"
C       -0.00820000       1.60070000       0.07690000
C       -0.08560000       0.10330000      -0.20980000
C       -1.35620000      -0.53380000       0.31340000
O       -2.20200000       0.11510000       0.89570000
C       -1.58730000      -2.01720000       0.11010000
C       -2.40290000      -2.70280000       1.22910000
C       -3.06940000      -2.42330000      -0.05210000
C       -0.63210000      -2.91610000      -0.58310000
O        0.43010000      -2.61640000      -1.07100000
H        0.92350000       2.01460000      -0.31850000
H       -0.84560000       2.13380000      -0.38050000
H       -0.04700000       1.79920000       1.15110000
H       -0.01500000      -0.11240000      -1.28270000
H        0.76660000      -0.43980000       0.21600000
H       -2.12890000      -3.72320000       1.47380000
H       -2.62250000      -2.05300000       2.06700000
H       -3.74820000      -1.58080000      -0.09710000
H       -3.27670000      -3.24190000      -0.73270000
H       -0.99340000      -3.97150000      -0.62490000
