19
Properties=species:S:1:pos:R:3 gdb_86990=T pbc="F F F"
O        0.52150000       0.34860000      -0.88510000
C       -0.19620000      -0.37100000       0.08030000
C        0.17550000      -0.24180000       1.58450000
C       -1.33560000      -0.28850000       1.93410000
C       -1.65380000       0.03930000       0.43310000
N       -1.74620000      -1.58830000       2.44760000
C       -3.18840000      -1.70640000       2.62730000
C       -3.54880000      -3.03520000       3.12940000
N       -3.83710000      -4.08960000       3.50220000
H        0.51110000       1.27930000      -0.63660000
H       -0.14850000      -1.41340000      -0.24970000
H        0.80940000      -1.01020000       2.03340000
H        0.60680000       0.74070000       1.80150000
H       -1.67750000       0.46520000       2.64990000
H       -1.80860000       1.11310000       0.27960000
H       -2.47030000      -0.50080000      -0.05460000
H       -1.41230000      -2.33850000       1.85040000
H       -3.51000000      -0.95970000       3.36470000
H       -3.78280000      -1.51810000       1.71540000
