19
Properties=species:S:1:pos:R:3 gdb_56193=T pbc="F F F"
C        0.27410000       1.44980000      -0.06190000
C       -0.18090000       0.00360000       0.03420000
O       -0.69250000      -0.45860000       1.02120000
C        0.06600000      -0.82980000      -1.22290000
O       -0.26030000      -2.16940000      -0.98920000
C       -0.15320000      -2.98370000      -2.12430000
C        1.25200000      -3.50090000      -2.52440000
O        0.81580000      -4.86820000      -2.39220000
C       -0.45340000      -4.46150000      -1.83610000
H        1.36880000       1.49440000      -0.01610000
H       -0.02690000       1.90540000      -1.01130000
H       -0.13750000       2.01800000       0.77270000
H       -0.54180000      -0.39950000      -2.04050000
H        1.12040000      -0.70490000      -1.52740000
H       -0.72090000      -2.55880000      -2.96430000
H        1.60570000      -3.27840000      -3.53760000
H        2.03030000      -3.23910000      -1.79440000
H       -0.52830000      -4.66920000      -0.76190000
H       -1.29980000      -4.91420000      -2.36300000
