18
Properties=species:S:1:pos:R:3 gdb_78189=T pbc="F F F"
C       -0.40790000       1.46240000      -0.03610000
C       -0.02510000       0.00080000      -0.10570000
C        0.62890000      -0.71290000      -1.22310000
C        1.72340000       0.08440000      -1.91070000
O        1.27680000       1.21210000      -2.61880000
C        2.38690000       0.24310000      -0.49370000
C        2.68620000       1.56150000       0.02410000
C        2.99780000       2.65330000       0.42210000
N        1.30370000      -0.59580000       0.15590000
H        0.21840000       2.09810000      -0.65620000
H       -1.44190000       1.56570000      -0.38320000
H       -0.36440000       1.81590000       0.99900000
H       -0.75590000      -0.63520000       0.39410000
H        0.26670000      -1.66740000      -1.59080000
H        2.35210000      -0.55430000      -2.54420000
H        2.04820000       1.72390000      -2.88610000
H        3.29890000      -0.36080000      -0.45030000
H        3.25300000       3.61620000       0.79060000
