16
Properties=species:S:1:pos:R:3 gdb_27266=T pbc="F F F"
N       -0.03090000       1.42830000       0.06680000
C       -0.10320000       0.04100000       0.00440000
C       -1.13060000      -0.84540000      -0.00120000
O       -2.48500000      -0.78950000       0.06100000
C       -2.95520000      -2.12770000      -0.24500000
C       -1.76490000      -3.12140000      -0.04810000
C       -0.60990000      -2.16510000      -0.08190000
C        0.73770000      -2.03270000      -0.11840000
O        1.07390000      -0.71330000      -0.06810000
H        0.45470000       1.75940000       0.89460000
H        0.42120000       1.83370000      -0.74660000
H       -3.80640000      -2.33430000       0.40710000
H       -3.29820000      -2.13760000      -1.28660000
H       -1.83670000      -3.64270000       0.91340000
H       -1.75240000      -3.88170000      -0.83370000
H        1.56250000      -2.72400000      -0.17970000
