19
Properties=species:S:1:pos:R:3 gdb_96020=T pbc="F F F"
O        0.05970000       1.39840000      -0.20130000
C        0.02230000       0.00150000       0.00260000
C        0.50540000      -0.42880000       1.41170000
O       -0.32650000      -1.49840000       1.82200000
C       -1.62430000      -1.19080000       1.33870000
C       -1.40600000      -0.65010000      -0.08700000
C       -2.44430000       0.32120000      -0.59650000
C       -3.80400000       0.42510000      -0.05090000
O       -2.80710000       1.39450000       0.28800000
H       -0.60920000       1.80460000       0.36340000
H        0.67250000      -0.41060000      -0.77280000
H        1.54140000      -0.77450000       1.43860000
H        0.40920000       0.43800000       2.08780000
H       -2.22230000      -2.10400000       1.37970000
H       -2.10020000      -0.42210000       1.96850000
H       -1.36400000      -1.49340000      -0.78470000
H       -2.29290000       0.64920000      -1.62440000
H       -4.60980000       0.79590000      -0.68200000
H       -4.11790000      -0.22550000       0.76330000
