13
Properties=species:S:1:pos:R:3 gdb_129615=T pbc="F F F"
N       -0.19330000       1.25850000      -0.50990000
C       -0.10450000      -0.05580000      -0.18340000
C       -1.05830000      -1.04980000      -0.05040000
C       -2.54660000      -1.03650000      -0.24510000
C       -2.94620000      -0.04940000      -1.24960000
N       -3.19780000       0.77590000      -2.01920000
N       -0.38780000      -2.16860000       0.34720000
N        0.83970000      -1.98020000       0.47640000
O        1.07950000      -0.55380000       0.12180000
H        0.67050000       1.70770000      -0.77210000
H       -1.00610000       1.54220000      -1.03920000
H       -2.87670000      -2.03030000      -0.56520000
H       -3.08680000      -0.81100000       0.68460000
