13
Properties=species:S:1:pos:R:3 gdb_124149=T pbc="F F F"
C       -0.03560000       1.42550000       0.00910000
C        0.01810000      -0.02460000       0.00920000
C        0.06560000      -1.22890000       0.00980000
C        0.10620000      -2.63580000       0.00910000
N        1.14900000      -3.42020000       0.09530000
C        0.56770000      -4.65730000       0.04230000
O        1.27750000      -5.78230000       0.09930000
N       -0.73860000      -4.67440000      -0.06860000
O       -1.05330000      -3.30770000      -0.09130000
H        0.97150000       1.85440000      -0.00230000
H       -0.57370000       1.79580000      -0.86990000
H       -0.55290000       1.79640000       0.90050000
H        2.20530000      -5.52880000       0.17870000
