20
Properties=species:S:1:pos:R:3 gdb_55086=T pbc="F F F"
C       -0.05050000       1.41890000      -0.16890000
C        0.00770000      -0.09560000      -0.04070000
O        1.02810000      -0.74100000      -0.19840000
N       -1.17240000      -0.69320000       0.30620000
C       -2.58210000      -0.27190000       0.18290000
C       -2.97740000      -1.75730000       0.06200000
C       -4.19630000      -2.35960000       0.69480000
C       -2.21390000      -2.38260000      -1.08440000
C       -1.49770000      -2.10500000       0.20900000
H        0.96370000       1.81220000      -0.10000000
H       -0.46410000       1.69760000      -1.14490000
H       -0.67920000       1.87510000       0.60110000
H       -2.95790000       0.20260000       1.09720000
H       -2.80670000       0.37030000      -0.67690000
H       -5.10730000      -2.07430000       0.15510000
H       -4.14170000      -3.45270000       0.68940000
H       -4.30950000      -2.03520000       1.73530000
H       -2.45130000      -3.42670000      -1.26600000
H       -1.96050000      -1.81390000      -1.97540000
H       -0.98710000      -2.84690000       0.80910000
