19
Properties=species:S:1:pos:R:3 gdb_17534=T pbc="F F F"
C       -0.11520000       1.51170000      -0.05150000
N        0.09490000       0.07730000       0.07520000
C        1.37700000      -0.55360000      -0.14340000
C        2.57510000       0.27440000       0.37630000
C        1.90020000       0.28750000       1.76330000
C        2.58650000       0.04620000       3.07380000
C        1.88450000       1.36070000       2.81460000
C        0.73210000      -0.52910000       1.22530000
H        0.69870000       2.13820000       0.33620000
H       -0.26210000       1.75100000      -1.10960000
H       -1.03130000       1.77850000       0.48500000
H        1.44000000      -1.36100000      -0.86510000
H        3.50470000      -0.30070000       0.37030000
H        2.75220000       1.23770000      -0.11300000
H        2.12720000      -0.64970000       3.76950000
H        3.67180000       0.03970000       3.09090000
H        2.49940000       2.24040000       2.65180000
H        0.95540000       1.55860000       3.33970000
H        0.20140000      -1.30670000       1.76670000
