16
Properties=species:S:1:pos:R:3 gdb_26599=T pbc="F F F"
C       -0.03390000       1.53300000       0.00600000
C       -0.04550000       0.03240000       0.00300000
C       -1.18000000      -0.71280000      -0.07860000
O       -2.38790000      -0.09640000      -0.16350000
C       -1.11870000      -2.15370000      -0.07620000
C        0.08570000      -2.73820000       0.00850000
O        1.23250000      -2.04650000       0.09090000
C        1.23810000      -0.63930000       0.09320000
N        2.34870000      -0.02510000       0.17290000
H        0.56490000       1.91280000      -0.82840000
H       -1.04540000       1.93380000      -0.06490000
H        0.44150000       1.91030000       0.91740000
H       -3.08370000      -0.75870000      -0.21340000
H       -2.01450000      -2.75960000      -0.14070000
H        0.25480000      -3.80800000       0.01900000
H        3.12370000      -0.68490000       0.22700000
