15
Properties=species:S:1:pos:R:3 gdb_64073=T pbc="F F F"
C        0.14180000       1.55590000       0.03490000
C       -0.09440000       0.03690000      -0.03410000
O       -1.46370000      -0.27580000      -0.10430000
C        0.68730000      -0.61240000      -1.19230000
O        1.99240000      -0.95920000      -0.66120000
C        1.97650000      -1.07320000       0.68840000
O        2.90120000      -1.43770000       1.34790000
C        0.57650000      -0.63310000       1.15630000
O        0.08140000      -0.83000000       2.23120000
H        1.20810000       1.80360000       0.01690000
H       -0.34270000       2.02600000      -0.82510000
H       -0.29480000       1.96210000       0.95160000
H       -1.77610000      -0.37310000       0.80630000
H        0.17970000      -1.52140000      -1.52580000
H        0.85330000       0.05130000      -2.04180000
