17
Properties=species:S:1:pos:R:3 gdb_48176=T pbc="F F F"
N       -0.43090000       0.88740000       0.94370000
C       -0.18880000      -0.04100000       0.09800000
N       -1.12260000      -0.51580000      -0.77930000
C       -2.49760000      -0.05630000      -0.76680000
C       -3.32300000      -0.63230000       0.41000000
C       -4.71010000      -0.19350000       0.36140000
C       -5.84760000       0.18660000       0.28090000
C        1.17230000      -0.69040000      -0.04420000
O        2.11420000      -0.37540000       0.63230000
H        0.43350000       1.09790000       1.44560000
H       -0.90710000      -1.35900000      -1.28520000
H       -2.48960000       1.03390000      -0.69080000
H       -2.96220000      -0.33010000      -1.71750000
H       -3.27520000      -1.72840000       0.38420000
H       -2.85290000      -0.31020000       1.34500000
H       -6.85490000       0.51840000       0.23080000
H        1.25520000      -1.48590000      -0.82030000
