12
Properties=species:S:1:pos:R:3 gdb_132650=T pbc="F F F"
N       -0.04140000       1.35570000      -0.08680000
C       -0.01540000       0.00160000      -0.03630000
N       -1.16970000      -0.67080000      -0.01910000
C       -1.07010000      -1.99000000      -0.00510000
F       -2.22640000      -2.62930000       0.00910000
N        0.00190000      -2.75310000       0.00030000
C        1.16480000      -2.07540000      -0.01010000
C        1.20260000      -0.70600000      -0.02920000
F        2.35380000      -0.01600000      -0.03460000
H        0.80530000       1.86870000       0.08620000
H       -0.92430000       1.81110000       0.07360000
H        2.08600000      -2.65110000      -0.00200000
