19
Properties=species:S:1:pos:R:3 gdb_74858=T pbc="F F F"
C        0.07910000       1.47040000       0.03100000
C        0.00540000      -0.02050000      -0.02550000
C       -0.12540000      -0.80130000      -1.10190000
C       -0.07960000      -2.25390000      -0.77390000
C        1.22790000      -2.73640000      -0.17350000
C        0.10170000      -2.31570000       0.73070000
C        0.08250000      -0.86960000       1.25460000
C        1.21540000      -0.52930000       2.11320000
C        2.15100000      -0.23890000       2.81080000
H        1.02060000       1.80130000       0.48470000
H        0.00190000       1.91110000      -0.96640000
H       -0.72690000       1.88420000       0.65140000
H       -0.21870000      -0.43160000      -2.11770000
H       -0.70770000      -2.95670000      -1.31020000
H        1.44170000      -3.79940000      -0.21680000
H        2.09640000      -2.09260000      -0.26430000
H       -0.38570000      -3.07500000       1.32950000
H       -0.83740000      -0.70920000       1.83850000
H        2.97550000       0.00780000       3.43260000
