20
Properties=species:S:1:pos:R:3 gdb_11573=T pbc="F F F"
C        0.14190000       1.56300000      -0.36650000
O       -0.05600000       0.18830000      -0.13370000
C        0.57170000      -0.67830000      -1.07400000
C        2.08020000      -0.78560000      -0.83600000
C       -0.12460000      -2.03480000      -0.93900000
C       -1.59880000      -1.97220000      -1.26100000
C       -2.11650000      -2.29390000      -2.59770000
O       -2.24830000      -3.22020000      -1.51860000
H        1.19020000       1.86970000      -0.23990000
H       -0.18170000       1.85490000      -1.37820000
H       -0.46470000       2.10280000       0.36510000
H        0.39520000      -0.28570000      -2.09090000
H        2.53700000      -1.45680000      -1.57010000
H        2.57280000       0.18640000      -0.92610000
H        2.27890000      -1.17980000       0.16570000
H        0.35650000      -2.76400000      -1.59960000
H        0.00720000      -2.39120000       0.09020000
H       -2.17770000      -1.28710000      -0.64390000
H       -3.04560000      -1.84500000      -2.94690000
H       -1.42290000      -2.59040000      -3.38470000
