19
Properties=species:S:1:pos:R:3 gdb_65019=T pbc="F F F"
C       -0.61760000       1.32400000       0.50310000
C       -0.16770000      -0.03370000       0.00120000
C        1.15780000      -0.15850000      -0.69650000
C        0.98460000      -0.74090000       0.68290000
N       -1.24750000      -0.87140000      -0.49300000
C       -1.78200000      -0.66800000      -1.76660000
N       -1.33840000       0.23640000      -2.54110000
C       -1.86180000      -1.78880000       0.34770000
O       -2.79890000      -2.49070000       0.04760000
H        0.23870000       1.90330000       0.85980000
H       -1.09760000       1.88460000      -0.30320000
H       -1.32730000       1.22390000       1.33190000
H        1.22120000      -0.84620000      -1.53000000
H        1.73940000       0.74790000      -0.81700000
H        1.44170000      -0.23920000       1.52880000
H        0.95530000      -1.82100000       0.76810000
H       -2.59390000      -1.36850000      -1.96910000
H       -1.85490000       0.21940000      -3.41910000
H       -1.38340000      -1.80750000       1.34170000
