23
Properties=species:S:1:pos:R:3 gdb_121129=T pbc="F F F"
O       -0.14780000       1.48650000       0.01180000
C       -0.00630000       0.07590000       0.10600000
C       -1.39680000      -0.54030000       0.01630000
C       -1.39800000      -2.07130000       0.02150000
C       -0.85840000      -2.72450000       1.31480000
C       -1.50300000      -4.11690000       1.30560000
C       -2.95020000      -3.82630000       0.87260000
O       -3.72250000      -3.31150000       1.95900000
C       -2.81910000      -2.68560000      -0.15840000
H        0.72350000       1.88240000       0.10420000
H        0.62560000      -0.31540000      -0.70960000
H        0.47500000      -0.21020000       1.05460000
H       -2.00360000      -0.16780000       0.85140000
H       -1.86960000      -0.17070000      -0.90200000
H       -0.76950000      -2.41590000      -0.81170000
H        0.23390000      -2.75530000       1.35880000
H       -1.21450000      -2.16630000       2.18850000
H       -1.01760000      -4.75720000       0.55750000
H       -1.45100000      -4.64080000       2.26660000
H       -3.44400000      -4.71230000       0.44930000
H       -3.74950000      -3.98580000       2.64580000
H       -3.60580000      -1.95200000       0.03810000
H       -2.96530000      -3.05480000      -1.17720000
