16
Properties=species:S:1:pos:R:3 gdb_53634=T pbc="F F F"
C       -0.08760000       1.40570000       0.19060000
C       -0.03170000      -0.03390000      -0.01730000
C        0.02470000      -1.22540000      -0.17780000
C        0.08060000      -2.66620000      -0.39670000
N       -1.24610000      -3.27400000      -0.37640000
C       -1.48760000      -4.44780000       0.27300000
O       -0.62840000      -5.10810000       0.82960000
C       -2.88840000      -4.85080000       0.23680000
C       -4.03490000      -5.21190000       0.22280000
H        0.72410000       1.74110000       0.84510000
H       -0.00050000       1.95120000      -0.75530000
H       -1.03280000       1.70000000       0.65940000
H        0.58340000      -2.88170000      -1.35010000
H        0.66090000      -3.17010000       0.38300000
H       -2.01760000      -2.76730000      -0.77940000
H       -5.04480000      -5.54290000       0.21870000
