20
Properties=species:S:1:pos:R:3 gdb_65599=T pbc="F F F"
C        0.42410000       1.34460000       0.02570000
C       -0.02680000      -0.12070000       0.00870000
C        0.52700000      -0.94250000      -1.19900000
C        1.59120000      -1.86560000      -0.62560000
C        2.67340000      -1.27410000       0.20120000
N        1.50890000      -1.90270000       0.84370000
C        0.45870000      -0.95610000       1.24840000
C       -1.54780000      -0.18180000      -0.03020000
O       -2.28840000       0.76550000      -0.02570000
H        1.51240000       1.43730000       0.01290000
H        0.02510000       1.87930000      -0.84060000
H        0.04810000       1.85180000       0.91840000
H       -0.26470000      -1.55280000      -1.65100000
H        0.90580000      -0.28200000      -1.98460000
H        1.75670000      -2.81590000      -1.12600000
H        3.60550000      -1.81460000       0.33890000
H        2.77380000      -0.19350000       0.23300000
H        0.81320000      -0.30440000       2.05280000
H       -0.36720000      -1.55310000       1.65440000
H       -1.94840000      -1.22360000      -0.06150000
