16
Properties=species:S:1:pos:R:3 gdb_99450=T pbc="F F F"
C       -0.20100000       1.47460000      -0.06070000
C       -0.08150000      -0.04600000      -0.15620000
C        0.88610000      -0.50710000      -1.28830000
C        2.24950000       0.00350000      -1.06480000
N        3.30830000       0.42450000      -0.87630000
C        0.88770000      -1.96100000      -1.43490000
C        0.83710000      -3.16100000      -1.54530000
C        0.81930000      -4.59920000      -1.67560000
O       -0.18000000      -5.24910000      -1.87310000
H        0.76520000       1.93900000       0.15670000
H       -0.58170000       1.90380000      -0.99380000
H       -0.89390000       1.74790000       0.73940000
H        0.27170000      -0.46820000       0.78930000
H       -1.05390000      -0.50010000      -0.36800000
H        0.53060000      -0.06970000      -2.23250000
H        1.81540000      -5.07440000      -1.57820000
