19
Properties=species:S:1:pos:R:3 gdb_96651=T pbc="F F F"
C       -0.10110000       1.38700000      -0.06160000
N       -0.02290000      -0.06150000      -0.00130000
C        0.58130000      -0.59710000       0.98390000
C        1.25270000       0.10280000       2.14170000
N        0.62920000      -1.98900000       0.99610000
C        0.07130000      -2.93150000       0.01640000
C        0.63060000      -4.08440000       0.89630000
C        1.15520000      -2.97810000       1.82830000
O        1.77030000      -2.92910000       2.86010000
H        0.89030000       1.86130000      -0.10350000
H       -0.64650000       1.67750000      -0.96290000
H       -0.62970000       1.81670000       0.80180000
H        0.52410000       0.72790000       2.66890000
H        1.69160000      -0.60590000       2.84250000
H        2.03500000       0.77130000       1.76660000
H       -1.01630000      -2.87190000      -0.06250000
H        0.51370000      -2.82730000      -0.97670000
H       -0.11400000      -4.73650000       1.35620000
H        1.41550000      -4.69200000       0.44230000
