15
Properties=species:S:1:pos:R:3 gdb_3050=T pbc="F F F"
O       -0.12090000       0.24890000       0.68730000
C        0.01540000       1.23490000      -0.00480000
N        1.18940000       1.65690000      -0.54830000
C        2.45790000       0.98230000      -0.31700000
C        3.53520000       1.94720000       0.11520000
C        4.95590000       1.67200000      -0.19830000
N        4.24660000       2.76680000      -0.88670000
H       -0.82360000       1.90770000      -0.27150000
H        1.18730000       2.50770000      -1.08880000
H        2.26520000       0.23090000       0.45370000
H        2.78380000       0.44890000      -1.22250000
H        3.30510000       2.49510000       1.02660000
H        5.73460000       1.98890000       0.48880000
H        5.18840000       0.77010000      -0.75940000
H        3.99430000       2.45870000      -1.82430000
