16
Properties=species:S:1:pos:R:3 gdb_65433=T pbc="F F F"
C        0.05440000       1.58120000      -0.15630000
C       -0.02990000       0.09370000       0.06850000
O        1.18420000      -0.68650000       0.00590000
C        0.51900000      -0.61460000       1.25200000
C        1.21730000       0.11590000       2.38970000
C        2.12200000      -0.76900000       3.12430000
N        2.82480000      -1.47840000       3.70450000
C       -1.17880000      -0.61040000      -0.60330000
O       -2.11750000      -0.04260000      -1.09610000
H        0.92310000       2.02140000       0.33390000
H        0.12350000       1.78900000      -1.22760000
H       -0.85400000       2.06520000       0.21190000
H        0.03890000      -1.54560000       1.55920000
H        1.78820000       0.96420000       2.00550000
H        0.46860000       0.50730000       3.08880000
H       -1.07510000      -1.71780000      -0.61010000
