25
Properties=species:S:1:pos:R:3 gdb_101656=T pbc="F F F"
C       -0.07520000       1.56180000       0.20440000
C        0.01890000       0.04120000       0.04390000
C        0.86860000      -0.43560000      -1.15080000
C        2.35250000      -0.07350000      -0.99220000
C        0.65880000      -1.95050000      -1.35190000
C        1.42300000      -2.59800000      -2.52840000
C        1.09610000      -4.09730000      -2.63690000
C        1.05060000      -1.90540000      -3.82290000
O        1.79680000      -1.25360000      -4.50800000
H        0.89610000       2.01530000       0.42280000
H       -0.46360000       2.03170000      -0.70630000
H       -0.74910000       1.82490000       1.02580000
H        0.42050000      -0.40240000       0.96580000
H       -0.99580000      -0.36310000      -0.06710000
H        0.49370000       0.08130000      -2.04680000
H        2.48270000       0.99360000      -0.79270000
H        2.80400000      -0.62570000      -0.15850000
H        2.91900000      -0.30180000      -1.89880000
H        0.94840000      -2.48020000      -0.43410000
H       -0.41480000      -2.14390000      -1.48520000
H        2.50070000      -2.46760000      -2.39380000
H        0.03300000      -4.25610000      -2.85160000
H        1.67640000      -4.57740000      -3.43060000
H        1.32390000      -4.60610000      -1.69530000
H       -0.02030000      -2.04130000      -4.11460000
