17
Properties=species:S:1:pos:R:3 gdb_107562=T pbc="F F F"
N       -0.10970000       1.31220000       0.32100000
C       -0.08760000      -0.03410000       0.09880000
N       -1.10390000      -0.75780000      -0.20070000
C       -0.68640000      -2.16600000      -0.21630000
C        0.82080000      -2.18540000       0.01370000
O        1.54570000      -1.45550000      -0.98730000
C        1.21000000      -0.79060000       0.25810000
C        2.37580000      -0.25510000       1.03520000
O        2.87980000       0.93120000       0.42090000
H        0.76540000       1.80120000       0.20420000
H       -0.95170000       1.79850000       0.05390000
H       -1.20440000      -2.72700000       0.57310000
H       -0.95150000      -2.63300000      -1.17230000
H        1.34000000      -3.04020000       0.43930000
H        2.06670000       0.03570000       2.04350000
H        3.15490000      -1.02420000       1.11660000
H        3.17140000       0.68250000      -0.46430000
