20
Properties=species:S:1:pos:R:3 gdb_52109=T pbc="F F F"
O       -0.50010000       0.47870000       0.60090000
C        0.09380000       0.91080000      -0.35320000
C        1.35050000       1.74540000      -0.29210000
C        1.17170000       3.10150000      -1.00690000
C        2.45260000       3.88370000      -1.05660000
C        3.10360000       4.65450000       0.10950000
C        3.63890000       5.70360000      -0.92230000
C        2.97870000       4.89040000      -2.04380000
N        3.45860000       3.50930000      -2.04760000
H       -0.27250000       0.71750000      -1.38990000
H        1.63600000       1.87300000       0.75610000
H        2.14810000       1.19230000      -0.80770000
H        0.82670000       2.92970000      -2.03290000
H        0.39890000       3.68890000      -0.49620000
H        2.37540000       5.08980000       0.79880000
H        3.84460000       4.09800000       0.69320000
H        3.19130000       6.68980000      -0.77930000
H        4.72490000       5.82150000      -1.00060000
H        2.53940000       5.27620000      -2.95740000
H        4.39560000       3.42090000      -1.65680000
