16
Properties=species:S:1:pos:R:3 gdb_130201=T pbc="F F F"
N       -0.20450000       1.41990000      -0.09450000
C       -0.03930000       0.03370000      -0.04610000
N       -1.09020000      -0.77950000      -0.07840000
N       -0.55550000      -2.01740000       0.07410000
C        0.78880000      -2.00410000       0.18300000
C        1.18040000      -0.68070000       0.11870000
C        2.55330000      -0.15130000       0.21240000
C        3.42040000      -0.37490000       1.38540000
O        3.61170000      -1.11530000       0.17910000
H        0.48260000       1.88530000      -0.67370000
H       -1.13830000       1.66280000      -0.40200000
H       -1.16780000      -2.81350000       0.06460000
H        1.37510000      -2.90300000       0.28430000
H        2.75830000       0.74470000      -0.37760000
H        4.20820000       0.33860000       1.62550000
H        3.02550000      -0.94320000       2.22570000
