18
Properties=species:S:1:pos:R:3 gdb_18473=T pbc="F F F"
C        1.03780000       0.62110000      -1.87280000
C        1.46530000      -0.67340000      -1.21220000
O        2.90980000      -0.89640000      -1.15910000
C        2.80060000      -1.33880000       0.19890000
C        2.41470000      -0.21270000       1.10680000
C        2.93100000       1.20190000       0.95780000
O        4.09580000       1.40460000       1.74930000
C        1.34490000      -0.92860000       0.29110000
H        1.41790000       0.66090000      -2.89900000
H       -0.05590000       0.66380000      -1.91830000
H        1.39310000       1.50340000      -1.33800000
H        1.01830000      -1.51970000      -1.75250000
H        3.32420000      -2.24660000       0.47720000
H        2.36400000      -0.52350000       2.14970000
H        3.12830000       1.42470000      -0.09700000
H        2.19410000       1.92280000       1.32710000
H        4.78140000       0.82670000       1.39850000
H        0.51090000      -1.42850000       0.76570000
