18
Properties=species:S:1:pos:R:3 gdb_116946=T pbc="F F F"
C        0.38460000       1.31550000       0.22200000
O        0.33810000      -0.08970000       0.14430000
C        0.26910000      -0.54350000      -1.19490000
C        0.23440000      -1.99850000      -1.23290000
C        0.21570000      -3.19850000      -1.30080000
C        0.18700000      -4.65010000      -1.35520000
C        1.39660000      -5.26350000      -2.09100000
N        1.67530000      -6.54620000      -1.70810000
O        2.00250000      -4.69060000      -2.96750000
H        1.26900000       1.72610000      -0.29130000
H       -0.51220000       1.78120000      -0.21800000
H        0.43610000       1.57950000       1.28060000
H       -0.62740000      -0.13270000      -1.69200000
H        1.13920000      -0.18020000      -1.76930000
H        0.10950000      -5.06190000      -0.34100000
H       -0.71070000      -4.99370000      -1.88830000
H        1.28120000      -6.95490000      -0.87910000
H        2.47800000      -6.99140000      -2.12290000
