21
Properties=species:S:1:pos:R:3 gdb_59181=T pbc="F F F"
C        0.08160000       1.54710000       0.11670000
C        0.11480000       0.01810000       0.09810000
O        0.79380000      -0.50440000       1.24400000
C       -1.28200000      -0.58340000       0.00560000
C       -2.08580000      -0.76800000      -1.31130000
C       -1.15530000      -1.91970000      -1.74780000
C       -1.51820000      -2.10420000      -0.24720000
C       -1.26910000      -3.25800000       0.67060000
O       -2.92750000      -1.76040000      -0.60850000
H        1.09330000       1.94680000       0.22620000
H       -0.35310000       1.94420000      -0.80670000
H       -0.52540000       1.91290000       0.95400000
H        0.73220000      -0.30870000      -0.74420000
H        0.30170000      -0.22640000       2.02500000
H       -1.92320000      -0.21020000       0.81390000
H       -2.59880000      -0.02290000      -1.91990000
H       -1.62030000      -2.64670000      -2.41500000
H       -0.12130000      -1.70230000      -2.02250000
H       -0.20440000      -3.30520000       0.91620000
H       -1.83130000      -3.12940000       1.60090000
H       -1.57370000      -4.20160000       0.20820000
