19
Properties=species:S:1:pos:R:3 gdb_73238=T pbc="F F F"
O        0.10300000       1.38530000      -0.18450000
C        0.01260000      -0.00180000      -0.05590000
C        0.31630000      -0.84740000      -1.33510000
C       -1.01840000      -1.61670000      -1.14090000
C       -1.39170000      -0.68480000       0.05170000
C       -1.45390000      -1.36610000       1.43510000
C        0.01870000      -1.65210000       1.80790000
C        0.75610000      -0.46960000       1.19750000
O        1.70080000       0.12890000       1.65380000
H        0.88520000       1.64850000       0.32450000
H        0.31270000      -0.18720000      -2.20500000
H        1.24050000      -1.43230000      -1.34230000
H       -1.70150000      -1.57630000      -1.99110000
H       -0.89900000      -2.66580000      -0.85600000
H       -2.23780000      -0.02450000      -0.14110000
H       -1.88700000      -0.67910000       2.17080000
H       -2.07140000      -2.26900000       1.42680000
H        0.22020000      -1.73720000       2.87690000
H        0.37470000      -2.57350000       1.32820000
