18
Properties=species:S:1:pos:R:3 gdb_53651=T pbc="F F F"
C        0.00990000       1.50720000      -0.00180000
C        0.02240000       0.05170000       0.03840000
C        0.04560000      -1.15160000       0.07180000
C        0.03710000      -2.60860000       0.11060000
C       -1.37630000      -3.19370000      -0.07550000
C       -1.36990000      -4.72920000       0.01640000
O       -0.86490000      -5.21310000       1.24860000
C       -2.71960000      -5.26850000      -0.25160000
N       -3.78710000      -5.67260000      -0.43140000
H        0.65080000       1.88880000      -0.80420000
H       -1.00120000       1.89150000      -0.17590000
H        0.36870000       1.93550000       0.94060000
H        0.69710000      -3.00730000      -0.67210000
H        0.44680000      -2.96820000       1.06140000
H       -2.05170000      -2.79030000       0.68780000
H       -1.78450000      -2.89420000      -1.04610000
H       -0.69290000      -5.13400000      -0.74530000
H       -1.46990000      -4.94310000       1.94970000
