14
Properties=species:S:1:pos:R:3 gdb_16656=T pbc="F F F"
O        0.41180000       1.03180000       0.72770000
C       -0.04700000      -0.09140000       0.03010000
C       -1.57330000      -0.12590000      -0.20270000
C       -1.73020000      -0.66230000      -1.62040000
O       -1.32240000       0.29250000      -2.60010000
C       -0.42300000      -0.79140000      -2.29700000
C        0.61550000      -0.25380000      -1.34330000
O        1.76000000       0.04520000      -1.57450000
H        1.30860000       1.20030000       0.40470000
H        0.22860000      -1.02490000       0.56070000
H       -2.08320000      -0.75700000       0.52880000
H       -1.98590000       0.88430000      -0.13630000
H       -2.57640000      -1.28310000      -1.90120000
H       -0.18660000      -1.47110000      -3.10960000
