23
Properties=species:S:1:pos:R:3 gdb_93145=T pbc="F F F"
C       -0.01490000       1.58010000      -0.04160000
C        0.02980000       0.03830000       0.02790000
C        0.59630000      -0.49810000      -1.30550000
C        0.56670000      -1.99650000      -1.44670000
C        1.35970000      -2.78680000      -0.72980000
C        2.33520000      -2.23660000       0.28610000
C        1.70640000      -1.37450000       1.36470000
C        0.74480000      -0.44570000       1.28650000
C        0.25690000       0.19200000       2.57120000
H        0.99760000       1.99880000      -0.06920000
H       -0.53490000       1.90160000      -0.94970000
H       -0.53790000       2.02020000       0.81020000
H       -1.01340000      -0.30840000       0.10740000
H        0.03030000      -0.03600000      -2.12120000
H        1.62900000      -0.13470000      -1.40830000
H       -0.13520000      -2.42680000      -2.15640000
H        1.31760000      -3.86580000      -0.85240000
H        2.85440000      -3.06450000       0.77810000
H        3.12690000      -1.67210000      -0.23270000
H        2.09660000      -1.57430000       2.36160000
H        0.67280000      -0.31400000       3.44580000
H        0.52830000       1.25170000       2.63930000
H       -0.83780000       0.14530000       2.64400000
