14
Properties=species:S:1:pos:R:3 gdb_128942=T pbc="F F F"
N       -0.09180000      -1.11440000       0.37610000
C       -0.02550000       0.01130000       0.12880000
C        0.05820000       1.43340000      -0.21540000
N        1.33270000       1.99170000       0.21250000
C        1.52850000       3.35660000       0.07960000
N        2.72310000       3.82150000      -0.22330000
O        2.59790000       5.21250000      -0.18770000
C        1.33450000       5.52550000       0.11020000
C        0.58600000       4.40990000       0.29450000
H       -0.13080000       1.53740000      -1.29620000
H       -0.75420000       1.95510000       0.30140000
H        2.13590000       1.46270000      -0.10380000
H        1.10860000       6.57970000       0.16320000
H       -0.45610000       4.35040000       0.55750000
