16
Properties=species:S:1:pos:R:3 gdb_5072=T pbc="F F F"
C        0.04850000       1.54400000       0.12290000
C        0.02380000       0.06040000      -0.01500000
C        0.08140000      -0.74390000      -1.12970000
O        0.17900000      -0.34030000      -2.42520000
C        0.02250000      -2.10670000      -0.72080000
N        0.06390000      -3.15950000      -1.68620000
C       -0.07130000      -2.10940000       0.65630000
N       -0.06950000      -0.80270000       1.06680000
H        0.90300000       1.89840000       0.71470000
H        0.12670000       1.99350000      -0.86980000
H       -0.86130000       1.93900000       0.59410000
H        0.19460000      -1.16300000      -2.93730000
H       -0.77030000      -3.73660000      -1.65720000
H        0.85810000      -3.77530000      -1.54530000
H       -0.13790000      -2.92190000       1.36210000
H       -0.12700000      -0.50220000       2.02320000
