18
Properties=species:S:1:pos:R:3 gdb_8415=T pbc="F F F"
C       -0.09720000       1.59790000       0.09700000
C        0.06290000       0.08460000       0.11180000
C       -1.20530000      -0.62410000      -0.34940000
O        1.18900000      -0.37990000      -0.73360000
C        1.68040000      -1.19450000       0.33940000
C        2.19110000      -0.30530000       1.41330000
O        2.79800000       0.91520000       1.12420000
C        0.69620000      -0.58920000       1.33580000
H        0.78890000       2.09930000       0.48590000
H       -0.29350000       1.94570000      -0.92300000
H       -0.95190000       1.88520000       0.71840000
H       -1.47640000      -0.29420000      -1.35700000
H       -1.06240000      -1.70770000      -0.36530000
H       -2.03870000      -0.39400000       0.32330000
H        1.98780000      -2.20780000       0.10470000
H        2.67200000      -0.80690000       2.24920000
H        2.71710000       1.02470000       0.16670000
H        0.14230000      -1.04700000       2.14600000
