18
Properties=species:S:1:pos:R:3 gdb_58057=T pbc="F F F"
C        0.10410000       1.47100000      -0.14090000
C       -0.03660000      -0.03930000       0.01150000
O        0.68190000      -0.52680000       1.13450000
C       -1.52290000      -0.51040000       0.11650000
C       -2.32530000      -0.00860000      -0.99960000
N       -2.95620000       0.40350000      -1.87590000
C       -1.58570000      -2.03080000       0.22280000
C       -2.67190000      -2.84120000      -0.33620000
O       -1.39760000      -2.75610000      -0.98640000
H        1.16300000       1.73850000      -0.18400000
H       -0.38520000       1.82930000      -1.04970000
H       -0.34960000       1.99290000       0.71200000
H        0.40130000      -0.54500000      -0.85540000
H        0.53160000       0.07690000       1.87070000
H       -1.93900000      -0.08500000       1.04150000
H       -1.02190000      -2.40840000       1.07330000
H       -2.90090000      -3.80580000       0.11330000
H       -3.49120000      -2.35780000      -0.86380000
