19
Properties=species:S:1:pos:R:3 gdb_45467=T pbc="F F F"
O        0.00140000      -0.10370000       0.00980000
C       -0.00360000       1.11110000       0.02280000
C       -1.29260000       1.91910000       0.13810000
C       -1.27980000       3.22310000      -0.67400000
C       -2.00810000       4.41560000       0.01270000
C       -0.63960000       4.91360000       0.55390000
C        0.05490000       4.00760000      -0.52040000
C        1.27410000       3.22100000      -0.18320000
C        1.25200000       1.89660000       0.02120000
H       -2.13430000       1.27640000      -0.13130000
H       -1.40080000       2.14960000       1.20780000
H       -1.57030000       3.01510000      -1.70720000
H       -2.43330000       5.10940000      -0.71760000
H       -2.77860000       4.16670000       0.74680000
H       -0.43400000       5.98500000       0.50960000
H       -0.43970000       4.56160000       1.56910000
H        0.25060000       4.60850000      -1.41590000
H        2.22100000       3.75790000      -0.14180000
H        2.15980000       1.32770000       0.19730000
