15
Properties=species:S:1:pos:R:3 gdb_124772=T pbc="F F F"
C        0.09560000       1.41000000      -0.37960000
C        0.04120000       0.00060000       0.23760000
O        0.48090000       0.02420000       1.57000000
C       -1.35400000      -0.57680000       0.12450000
C       -1.97550000      -0.92960000      -1.07700000
N       -3.20200000      -1.41650000      -1.08320000
N       -3.83960000      -1.55230000       0.08650000
N       -3.26750000      -1.23040000       1.21640000
N       -2.02470000      -0.74880000       1.25320000
H        1.11000000       1.79980000      -0.26990000
H       -0.16070000       1.39950000      -1.44400000
H       -0.59250000       2.07960000       0.14440000
H        0.71240000      -0.65510000      -0.33990000
H       -0.29010000      -0.14900000       2.13090000
H       -1.48430000      -0.83110000      -2.04160000
