18
Properties=species:S:1:pos:R:3 gdb_36532=T pbc="F F F"
N       -0.08910000      -1.16140000      -0.06040000
C       -0.06440000      -0.00690000      -0.01830000
C       -0.00750000       1.45300000       0.03050000
C        1.43230000       1.99890000      -0.01010000
C        2.16270000       1.63350000      -1.31140000
O        3.43750000       2.25320000      -1.35250000
C        3.33150000       3.64530000      -1.22600000
O        2.75350000       4.03610000      -0.00660000
C        1.43760000       3.52900000       0.12440000
H       -0.58960000       1.85020000      -0.81070000
H       -0.51030000       1.78780000       0.94560000
H        2.00080000       1.58080000       0.82740000
H        2.32890000       0.55680000      -1.39170000
H        1.55700000       1.95380000      -2.17850000
H        4.34500000       4.04890000      -1.24300000
H        2.73800000       4.05450000      -2.06710000
H        0.78060000       3.97160000      -0.64640000
H        1.07260000       3.84880000       1.10470000
