13
Properties=species:S:1:pos:R:3 gdb_1773=T pbc="F F F"
N        0.11690000       1.41970000       0.03630000
C        0.03540000      -0.00700000       0.08460000
C       -0.53390000      -0.69780000       1.28230000
C       -1.31870000      -0.73100000      -0.02750000
O       -2.41150000       0.12920000      -0.15570000
C       -1.40870000      -1.96750000      -0.76220000
N       -1.47600000      -2.96290000      -1.34980000
H        0.20230000       1.72840000      -0.92810000
H       -0.74340000       1.82710000       0.39040000
H        0.86480000      -0.50220000      -0.40900000
H       -0.07130000      -1.61300000       1.63280000
H       -0.97330000      -0.07630000       2.05650000
H       -3.15830000      -0.25110000       0.32090000
