20
Properties=species:S:1:pos:R:3 gdb_121889=T pbc="F F F"
C       -0.08250000       0.84680000      -1.18150000
C       -0.29720000      -0.24350000      -0.13590000
O        0.05450000      -1.54790000      -0.58410000
C        1.44750000      -1.83330000      -0.65580000
C        1.91130000      -2.06300000      -2.10580000
O        3.30410000      -2.20100000      -2.11870000
C        1.28870000      -3.32170000      -2.74070000
N       -0.06120000      -3.39030000      -2.73220000
O        2.02120000      -4.16450000      -3.23780000
H        0.97510000       0.95770000      -1.44030000
H       -0.63960000       0.62100000      -2.09580000
H       -0.43320000       1.80920000      -0.79410000
H        0.25880000      -0.00900000       0.78340000
H       -1.35710000      -0.30770000       0.13050000
H        2.04240000      -1.01450000      -0.23540000
H        1.65070000      -2.73310000      -0.06230000
H        1.59430000      -1.19600000      -2.70870000
H        3.45650000      -3.03470000      -2.60020000
H       -0.57230000      -2.76590000      -2.12310000
H       -0.49240000      -4.24280000      -3.05280000
