15
Properties=species:S:1:pos:R:3 gdb_49155=T pbc="F F F"
O       -0.03050000      -0.04940000       0.07130000
C        0.01450000       1.16320000       0.06230000
C        1.23940000       1.94060000      -0.04350000
C        1.36160000       3.28770000       0.03100000
C        2.77210000       3.66970000      -0.05890000
C        3.77490000       2.77540000       0.81690000
O        3.16320000       1.62070000       1.30650000
C        2.62880000       1.36050000      -0.06590000
C        3.55380000       2.48950000      -0.61440000
H       -0.91440000       1.77450000       0.11580000
H        0.55100000       3.98420000       0.21430000
H        3.09930000       4.68320000      -0.25160000
H        4.56340000       3.23580000       1.39890000
H        2.75480000       0.31800000      -0.34390000
H        4.19240000       2.49900000      -1.48820000
