21
Properties=species:S:1:pos:R:3 gdb_120969=T pbc="F F F"
C       -0.30760000       1.26460000      -0.55690000
O       -0.05930000      -0.07560000      -0.21030000
C        0.65140000      -0.78010000      -1.20890000
C        0.81050000      -2.23070000      -0.75470000
C       -0.55890000      -2.95850000      -0.62990000
C       -0.69380000      -3.76200000      -1.90590000
O       -0.44710000      -2.99960000      -3.10000000
C        0.60570000      -3.82810000      -2.58400000
C        1.63600000      -3.06630000      -1.77490000
H        0.62700000       1.82980000      -0.70350000
H       -0.90220000       1.34570000      -1.48060000
H       -0.86740000       1.71890000       0.26470000
H        0.11680000      -0.74080000      -2.16950000
H        1.64570000      -0.32370000      -1.35910000
H        1.31260000      -2.20530000       0.21660000
H       -0.56550000      -3.64730000       0.22330000
H       -1.37480000      -2.24670000      -0.47880000
H       -1.45050000      -4.53700000      -2.00270000
H        0.90110000      -4.65550000      -3.22490000
H        2.27850000      -2.44000000      -2.40380000
H        2.28770000      -3.78410000      -1.26310000
