17
Properties=species:S:1:pos:R:3 gdb_80249=T pbc="F F F"
O       -0.05200000       1.51540000       0.04080000
C        0.02930000       0.11620000      -0.00990000
C       -1.32840000      -0.62330000      -0.12840000
C       -1.95820000       0.05280000      -1.36090000
C       -0.70820000       0.05460000      -2.26900000
O       -0.60420000       0.44780000      -3.39920000
C        0.33740000      -0.59690000      -1.37920000
C       -0.52810000      -1.77790000      -0.78300000
O        0.11780000      -2.57590000       0.17890000
H        0.83770000       1.87690000       0.09690000
H        0.64640000      -0.29670000       0.79060000
H       -1.95730000      -0.80470000       0.74180000
H       -2.77480000      -0.51860000      -1.81290000
H       -2.30130000       1.07130000      -1.16920000
H        1.33760000      -0.73690000      -1.78620000
H       -1.06970000      -2.39100000      -1.51460000
H        0.73340000      -3.15840000      -0.27750000
