20
Properties=species:S:1:pos:R:3 gdb_99693=T pbc="F F F"
C        0.14990000       1.49460000       0.57920000
C        0.13460000      -0.01740000       0.35930000
C        0.53980000      -0.43190000      -1.07860000
C        1.91640000      -0.06510000      -1.40220000
C        3.05600000       0.23970000      -1.65370000
C        4.42620000       0.62900000      -1.96050000
C        0.20400000      -1.93110000      -1.28670000
N        1.20610000      -2.70330000      -1.77330000
O       -0.90600000      -2.35520000      -1.02810000
H        1.14590000       1.91290000       0.40370000
H       -0.54930000       1.99970000      -0.09690000
H       -0.14350000       1.73930000       1.60460000
H        0.81210000      -0.50780000       1.06810000
H       -0.86410000      -0.42630000       0.53200000
H       -0.13480000       0.09280000      -1.77030000
H        4.70080000       0.35350000      -2.98470000
H        4.55780000       1.71230000      -1.86420000
H        5.14060000       0.14820000      -1.28330000
H        2.11570000      -2.31550000      -1.95740000
H        1.02910000      -3.68250000      -1.92240000
