20
Properties=species:S:1:pos:R:3 gdb_99755=T pbc="F F F"
C        0.35520000       1.07950000       0.67520000
N       -0.34590000       0.20990000      -0.26930000
H       -0.85810000      -0.52520000       0.21120000
H       -1.37460000       0.78660000      -1.68050000
C        0.46170000      -0.41490000      -1.32420000
C        0.86820000      -1.87790000      -1.04720000
C        1.76600000      -2.05850000       0.16870000
O       -0.31220000      -2.64900000      -0.81640000
C       -0.33650000      -0.36860000      -2.65270000
O       -0.05390000      -1.04190000      -3.61230000
O       -1.36240000       0.47970000      -2.62210000
H        1.16310000       0.58490000       1.23130000
H        0.78580000       1.92810000       0.13430000
H       -0.36480000       1.47600000       1.39650000
H        1.36390000       0.18830000      -1.48550000
H        1.38440000      -2.23680000      -1.94510000
H        1.25160000      -1.75840000       1.08660000
H        2.03790000      -3.11190000       0.27100000
H        2.68260000      -1.46910000       0.07180000
H       -0.72060000      -2.81240000      -1.67450000
