17
Properties=species:S:1:pos:R:3 gdb_86963=T pbc="F F F"
O       -0.61760000       1.33220000      -0.62970000
C       -0.09900000       0.12750000      -0.07970000
C       -1.16400000      -0.96700000       0.19160000
C       -1.01400000      -1.99260000      -0.94910000
O       -2.01630000      -1.77030000      -1.97360000
C       -2.84940000      -2.77720000      -2.29190000
O       -3.70710000      -2.67290000      -3.11610000
C        0.34620000      -1.69080000      -1.52700000
C        0.84920000      -0.55770000      -1.04060000
H       -1.00950000       1.11410000      -1.48390000
H        0.39340000       0.43980000       0.84600000
H       -0.96290000      -1.45750000       1.14860000
H       -2.16970000      -0.54510000       0.23190000
H       -1.11250000      -3.02650000      -0.59750000
H       -2.64990000      -3.69990000      -1.71130000
H        0.80010000      -2.32410000      -2.28050000
H        1.79050000      -0.10550000      -1.33160000
