13
Properties=species:S:1:pos:R:3 gdb_131129=T pbc="F F F"
O       -0.09240000       1.44000000       0.07920000
C        0.01530000       0.04670000       0.04540000
C        0.78360000      -0.39450000      -1.20240000
O        1.14820000       0.41510000      -2.01720000
C        0.70720000      -0.45670000       1.27800000
C        1.33780000       0.22410000       2.26970000
O        1.80380000      -0.65190000       3.15600000
N        1.43990000      -1.94490000       2.67750000
N        0.81020000      -1.79140000       1.59810000
H        0.30910000       1.74790000      -0.75080000
H       -0.97850000      -0.43230000      -0.01940000
H        0.97760000      -1.47820000      -1.30430000
H        1.50030000       1.27140000       2.45620000
