17
Properties=species:S:1:pos:R:3 gdb_3102=T pbc="F F F"
C       -0.31860000       1.36900000       0.07980000
C        0.25050000      -0.04260000      -0.11080000
C        0.88480000      -0.60220000       1.14490000
C        0.05260000      -1.27300000       2.22780000
O       -1.30210000      -1.55850000       1.98980000
C        0.98110000      -2.09970000       1.37820000
O        0.40260000      -2.98170000       0.46750000
H        0.45790000       2.07100000       0.40260000
H       -0.74970000       1.75230000      -0.85030000
H       -1.10630000       1.38900000       0.84280000
H       -0.53290000      -0.72140000      -0.45910000
H        1.00390000      -0.02710000      -0.90780000
H        1.72150000      -0.01990000       1.52670000
H        0.29280000      -1.08810000       3.27310000
H       -1.77850000      -0.73350000       1.85330000
H        1.88900000      -2.49730000       1.82340000
H       -0.54500000      -2.98190000       0.66150000
