19
Properties=species:S:1:pos:R:3 gdb_34843=T pbc="F F F"
C       -0.02180000      -1.18860000      -0.04970000
C       -0.01100000       0.01450000      -0.01990000
C        0.00510000       1.46230000       0.01540000
C       -0.14400000       2.07730000       1.45670000
C        1.39920000       1.94420000       1.58890000
C        1.44620000       2.10970000       0.04070000
C        1.29020000       3.57810000      -0.28870000
C        0.33450000       4.26550000       0.33790000
C       -0.54950000       3.55670000       1.34040000
H       -0.03590000      -2.24960000      -0.08200000
H       -0.66600000       1.87080000      -0.74630000
H       -0.77310000       1.53380000       2.16390000
H        1.93060000       2.68890000       2.18600000
H        1.68420000       0.93700000       1.89870000
H        2.23470000       1.61150000      -0.52260000
H        1.94900000       4.03660000      -1.01940000
H        0.16830000       5.32260000       0.15250000
H       -1.60500000       3.64020000       1.04470000
H       -0.47630000       4.04260000       2.32390000
