17
Properties=species:S:1:pos:R:3 gdb_82351=T pbc="F F F"
O        0.41570000       0.94370000       0.82080000
C       -0.06260000      -0.22240000       0.20190000
C       -1.50470000      -0.21840000      -0.28080000
C       -1.82540000       0.54540000      -1.55810000
C       -1.49580000      -0.92020000      -1.60120000
O       -0.18380000      -1.30990000      -1.95140000
C        0.74140000      -0.65050000      -1.08860000
C        1.38110000       0.49830000      -1.73890000
C        1.91200000       1.44740000      -2.25380000
H        0.51060000       1.62290000       0.14120000
H        0.05000000      -1.01100000       0.95210000
H       -2.28390000      -0.37530000       0.45490000
H       -2.86320000       0.82440000      -1.70520000
H       -1.10760000       1.25200000      -1.95830000
H       -2.22430000      -1.65940000      -1.91080000
H        1.51870000      -1.37870000      -0.83450000
H        2.39260000       2.26820000      -2.72750000
