16
Properties=species:S:1:pos:R:3 gdb_11341=T pbc="F F F"
C       -0.23580000       1.52350000      -0.05760000
C        0.09560000       0.02070000       0.01550000
C        0.81590000      -0.48660000      -1.19350000
C        2.05750000      -0.96680000      -1.30540000
C        2.31990000      -1.34650000      -2.70990000
O        3.29960000      -1.81020000      -3.21980000
O        1.17560000      -1.07140000      -3.43000000
C        0.18580000      -0.53130000      -2.56400000
H        0.67490000       2.11950000      -0.16810000
H       -0.89290000       1.75210000      -0.90200000
H       -0.74450000       1.84440000       0.85560000
H        0.70210000      -0.18010000       0.90410000
H       -0.83870000      -0.54390000       0.13780000
H        2.80050000      -1.09100000      -0.53090000
H       -0.70620000      -1.17190000      -2.58670000
H       -0.10670000       0.46160000      -2.92840000
