18
Properties=species:S:1:pos:R:3 gdb_20882=T pbc="F F F"
C       -0.00160000       1.53080000      -0.02560000
C        0.15310000       0.00910000      -0.06700000
C        0.61810000      -0.55930000       1.27800000
N        0.74100000      -2.00650000       1.26630000
C        1.87280000      -2.74960000       1.18640000
C        1.48380000      -4.07290000       1.14540000
C        0.07700000      -4.02150000       1.20380000
N       -0.37040000      -2.76940000       1.27470000
H        0.94640000       2.02400000       0.21780000
H       -0.33750000       1.91730000      -0.99190000
H       -0.73630000       1.83560000       0.72770000
H       -0.79800000      -0.46620000      -0.32760000
H        0.87320000      -0.27860000      -0.84240000
H        1.59440000      -0.14920000       1.55530000
H       -0.09260000      -0.29230000       2.06650000
H        2.84690000      -2.28600000       1.17130000
H        2.12150000      -4.94000000       1.09090000
H       -0.62740000      -4.84060000       1.20400000
