16
Properties=species:S:1:pos:R:3 gdb_67411=T pbc="F F F"
C       -0.16300000       1.53440000      -0.05070000
C       -0.01340000       0.05190000       0.00400000
C        0.08870000      -1.04480000      -0.98740000
O        1.21700000      -1.67520000      -0.41630000
C        0.89060000      -0.96580000       0.81520000
C       -0.38060000      -1.68600000       1.32290000
C       -1.05720000      -1.08760000       0.08750000
C       -2.43270000      -1.03730000      -0.25750000
N       -3.55310000      -0.98210000      -0.54840000
H        0.77340000       2.01290000      -0.35620000
H       -0.93780000       1.81150000      -0.77260000
H       -0.45410000       1.94330000       0.92250000
H       -0.09530000      -1.10990000      -2.05160000
H        1.75260000      -0.75520000       1.44280000
H       -0.32060000      -2.77360000       1.41260000
H       -0.76720000      -1.23770000       2.24070000
