20
Properties=species:S:1:pos:R:3 gdb_120723=T pbc="F F F"
N       -1.36610000       2.88730000      -1.27730000
H       -1.37320000       3.90000000      -1.16970000
H       -2.24510000       2.64010000      -1.72390000
H       -0.63950000       2.68440000      -1.95870000
C       -0.08430000       1.70160000       1.80770000
C       -0.30740000       2.33670000       2.96030000
C       -1.32000000       3.41170000       3.18550000
C       -0.93800000       4.76360000       3.70770000
C       -1.51080000       4.63780000       2.30050000
C       -0.68190000       5.01440000       1.11350000
O       -1.12030000       5.70790000       0.22830000
O        0.60270000       4.60230000       1.07590000
H       -0.60710000       1.95330000       0.88500000
H        0.64640000       0.89970000       1.75660000
H        0.24070000       2.03370000       3.85250000
H        0.73330000       3.84710000       1.67250000
H       -2.26300000       3.03040000       3.57350000
H       -1.55420000       5.24020000       4.46120000
H        0.11970000       4.99680000       3.77720000
H       -2.53280000       4.96900000       2.16490000
