17
Properties=species:S:1:pos:R:3 gdb_77443=T pbc="F F F"
C        0.11370000       1.51240000      -0.06580000
C        0.05160000       0.03270000       0.08950000
O        0.48510000      -0.79260000      -1.03440000
C        1.20170000      -1.63730000      -0.18330000
O        1.92310000      -2.53120000      -0.49450000
C        0.71560000      -0.94940000       1.05520000
N        1.30060000      -0.73560000       2.32380000
C       -0.86130000      -0.79780000       0.90510000
N       -1.56310000      -0.20680000       2.00050000
H        1.12740000       1.84590000      -0.30650000
H       -0.55570000       1.83550000      -0.86980000
H       -0.21330000       1.99980000       0.85610000
H        1.34030000      -1.59320000       2.86590000
H        2.24460000      -0.37140000       2.25190000
H       -1.40470000      -1.58920000       0.39740000
H       -2.06250000      -0.92290000       2.51740000
H       -0.89870000       0.21030000       2.64860000
