23
Properties=species:S:1:pos:R:3 gdb_111892=T pbc="F F F"
C        0.06560000       1.61320000       0.15190000
C        0.04830000       0.08180000       0.12460000
C       -1.36050000      -0.52310000      -0.03540000
C       -2.04830000      -0.23610000      -1.35860000
C       -2.54400000      -1.33210000      -1.94470000
C       -3.30060000      -1.41400000      -3.23320000
C       -2.20980000      -2.55460000      -1.14540000
C       -0.72740000      -2.85930000      -1.04650000
C       -1.40290000      -2.05460000       0.03650000
H        1.07920000       1.99250000       0.31670000
H       -0.29550000       2.03930000      -0.78980000
H       -0.56910000       2.00270000       0.95610000
H        0.69210000      -0.28070000      -0.68550000
H        0.48340000      -0.30000000       1.05690000
H       -1.97550000      -0.11730000       0.78440000
H       -2.11370000       0.76280000      -1.77700000
H       -3.43990000      -0.42730000      -3.68340000
H       -2.78150000      -2.05330000      -3.95860000
H       -4.29220000      -1.85970000      -3.08140000
H       -2.92420000      -3.36830000      -1.07010000
H       -0.43810000      -3.87300000      -0.78800000
H       -0.06390000      -2.36520000      -1.74860000
H       -1.50160000      -2.51940000       1.01070000
