18
Properties=species:S:1:pos:R:3 gdb_65291=T pbc="F F F"
C       -0.12850000       1.53790000       0.10980000
C       -0.07050000       0.02770000       0.12810000
O        1.16900000      -0.57330000      -0.28830000
C        0.78870000      -0.73320000       1.06510000
C        1.55820000      -0.21210000       2.28140000
C        0.96500000      -1.40980000       3.08560000
C        0.50770000      -2.07060000       1.74920000
C       -1.25800000      -0.64250000      -0.37840000
N       -2.22070000      -1.15970000      -0.75550000
H        0.79190000       1.94920000       0.52810000
H       -0.23830000       1.90140000      -0.91590000
H       -0.98100000       1.89830000       0.69340000
H        2.63770000      -0.29810000       2.12850000
H        1.33170000       0.79720000       2.63200000
H        1.66960000      -1.97970000       3.69200000
H        0.12210000      -1.11200000       3.71240000
H       -0.51170000      -2.45690000       1.68780000
H        1.20030000      -2.84160000       1.40010000
