15
Properties=species:S:1:pos:R:3 gdb_60727=T pbc="F F F"
N        0.00030000       1.33500000       0.17610000
C        0.07510000      -0.01400000       0.04200000
N        1.09650000      -0.77980000      -0.08360000
C       -1.29530000      -0.67340000       0.05180000
O       -2.29840000      -0.00400000       0.04160000
C       -1.33610000      -2.21610000       0.07300000
O       -2.59590000      -2.67910000       0.42590000
C       -0.92180000      -2.76700000      -1.29600000
O       -1.71530000      -3.38650000      -1.96010000
H        0.80490000       1.91720000       0.02140000
H       -0.91930000       1.74630000       0.12270000
H        1.97350000      -0.25670000      -0.11260000
H       -0.56830000      -2.54430000       0.78880000
H       -2.96720000      -3.07480000      -0.37880000
H        0.11310000      -2.56090000      -1.61290000
