16
Properties=species:S:1:pos:R:3 gdb_132375=T pbc="F F F"
N       -0.00930000       1.39940000       0.19630000
C       -0.00000000       0.01030000       0.06440000
C       -1.20670000      -0.70340000       0.06610000
C       -1.14900000      -2.08490000      -0.00350000
F       -2.30150000      -2.76930000      -0.00080000
C        0.03620000      -2.79680000      -0.07560000
C        1.24030000      -2.07880000      -0.07950000
N        2.45490000      -2.75180000      -0.21390000
C        1.21310000      -0.68210000      -0.00890000
H        0.80640000       1.86430000      -0.17500000
H       -0.86020000       1.84610000      -0.11290000
H       -2.16590000      -0.20380000       0.12710000
H        0.01570000      -3.87820000      -0.13430000
H        2.44120000      -3.71220000       0.09650000
H        3.25490000      -2.25730000       0.15280000
H        2.14720000      -0.12730000      -0.01100000
