21
Properties=species:S:1:pos:R:3 gdb_103969=T pbc="F F F"
C        0.04100000       1.62450000       0.01890000
C        0.03470000       0.09830000       0.17180000
C       -1.34830000      -0.52820000      -0.00600000
O       -2.26380000      -0.04430000       0.97370000
C       -2.01100000      -0.53090000      -1.43170000
C       -2.23070000      -2.04540000      -1.31320000
C       -0.92090000      -2.75150000      -1.15500000
O        0.26970000      -2.32490000      -1.76300000
C       -1.47720000      -2.05690000       0.04140000
H        1.05720000       2.01980000       0.10580000
H       -0.34870000       1.93320000      -0.95810000
H       -0.55740000       2.11860000       0.79330000
H        0.71270000      -0.35240000      -0.55600000
H        0.40200000      -0.17310000       1.16930000
H       -2.34180000       0.90810000       0.85600000
H       -2.94150000       0.03900000      -1.42540000
H       -1.38590000      -0.21020000      -2.27050000
H       -3.13590000      -2.56920000      -1.59760000
H       -1.01120000      -3.83700000      -1.08840000
H        0.20020000      -2.50840000      -2.70590000
H       -1.70810000      -2.58620000       0.95860000
