19
Properties=species:S:1:pos:R:3 gdb_121469=T pbc="F F F"
O       -0.38610000       1.57770000       0.18350000
C       -0.08640000       0.21000000       0.37020000
C       -1.25320000      -0.67310000      -0.07700000
N       -1.59320000      -0.30250000      -1.44470000
C       -2.09730000      -1.15750000      -2.22260000
N       -2.40000000      -0.94860000      -3.56080000
C       -3.32550000      -1.97640000      -4.01050000
C       -2.90930000      -3.11570000      -3.06930000
O       -2.42650000      -2.44500000      -1.89630000
H       -0.79300000       1.61550000      -0.69320000
H        0.81930000      -0.08120000      -0.18860000
H        0.11690000       0.05930000       1.43640000
H       -0.99310000      -1.73490000       0.02830000
H       -2.11330000      -0.47510000       0.57830000
H       -2.54470000       0.01300000      -3.82600000
H       -4.38000000      -1.70000000      -3.86380000
H       -3.17450000      -2.23220000      -5.06250000
H       -3.73200000      -3.77170000      -2.78000000
H       -2.09840000      -3.71510000      -3.49870000
