25
Properties=species:S:1:pos:R:3 gdb_101942=T pbc="F F F"
C        0.82760000      -0.42660000      -1.32530000
C       -0.04540000      -0.26770000      -0.07670000
C        0.64480000      -0.61140000       1.26020000
C       -0.26800000      -0.24910000       2.42360000
C        0.28220000       0.19850000       3.75260000
C       -0.43240000       1.18480000       2.85980000
C        1.05760000      -2.07420000       1.33380000
C        2.39600000      -2.55520000       0.82760000
C        2.10900000      -2.54290000       2.30790000
H        1.14560000      -1.46250000      -1.47010000
H        0.28210000      -0.11580000      -2.22230000
H        1.73080000       0.19100000      -1.25870000
H       -0.40660000       0.76610000      -0.01750000
H       -0.94360000      -0.89310000      -0.17750000
H        1.55450000       0.00380000       1.34320000
H       -1.16950000      -0.85730000       2.47320000
H       -0.21280000      -0.13300000       4.65890000
H        1.35810000       0.30000000       3.85040000
H        0.16950000       1.93760000       2.35970000
H       -1.41700000       1.53210000       3.15350000
H        0.22810000      -2.76300000       1.18110000
H        2.44520000      -3.51060000       0.31630000
H        3.08870000      -1.81380000       0.44310000
H        2.61020000      -1.79460000       2.91200000
H        1.96010000      -3.49010000       2.81460000
