16
Properties=species:S:1:pos:R:3 gdb_62434=T pbc="F F F"
C       -0.07760000       1.54020000       0.06380000
C        0.00530000       0.02830000      -0.04310000
C       -1.15070000      -0.64660000       0.51470000
N       -2.09660000      -1.15800000       0.93880000
C        0.71550000      -0.67860000      -1.15840000
C        1.72950000       0.09680000      -2.00000000
N        2.77510000       0.52060000      -1.05010000
C        2.44910000       0.06870000       0.09180000
N        1.27750000      -0.74580000       0.20800000
H        0.81580000       2.02570000      -0.32960000
H       -0.94480000       1.89530000      -0.50050000
H       -0.20850000       1.84140000       1.10680000
H        0.28440000      -1.59570000      -1.54510000
H        2.16990000      -0.54650000      -2.76900000
H        1.31800000       0.97380000      -2.51200000
H        3.03580000       0.23580000       0.98950000
