19
Properties=species:S:1:pos:R:3 gdb_111341=T pbc="F F F"
C        0.25040000       1.33530000       0.16940000
O       -0.24070000       0.06630000      -0.20250000
C        0.51350000      -0.55130000      -1.20070000
C        1.90470000      -1.14650000      -0.85270000
O        1.72040000      -2.18330000       0.11370000
C        1.45240000      -2.48980000      -1.26120000
C        0.05790000      -1.98230000      -1.56210000
C       -1.25470000      -2.62200000      -1.24530000
C       -0.85890000      -2.37060000      -2.68310000
H        1.25970000       1.27300000       0.60210000
H        0.28290000       2.02600000      -0.68840000
H       -0.43010000       1.73840000       0.92270000
H        0.59220000       0.09050000      -2.09490000
H        2.88470000      -0.68760000      -0.91730000
H        2.00550000      -3.30400000      -1.71480000
H       -1.25260000      -3.64290000      -0.87850000
H       -2.01120000      -1.98280000      -0.80390000
H       -1.36200000      -1.57710000      -3.22660000
H       -0.58240000      -3.22350000      -3.29510000
