15
Properties=species:S:1:pos:R:3 gdb_66898=T pbc="F F F"
C        0.03190000       1.52930000      -0.01300000
C       -0.02670000       0.03660000       0.02660000
C        0.48190000      -1.00370000      -0.96730000
N        1.10980000      -0.80750000       0.38540000
C        0.59270000      -1.71310000       1.38960000
N       -0.66690000      -1.77340000       1.52750000
C       -1.19790000      -0.92170000       0.44730000
C       -0.87180000      -1.64820000      -0.89180000
O       -1.53590000      -2.25250000      -1.68320000
H        0.99780000       1.85930000      -0.40340000
H       -0.76000000       1.93060000      -0.65270000
H       -0.09600000       1.94780000       0.99060000
H        1.13690000      -0.92020000      -1.82530000
H        1.30590000      -2.27030000       1.98630000
H       -2.21160000      -0.56590000       0.61280000
