19
Properties=species:S:1:pos:R:3 gdb_84069=T pbc="F F F"
C        0.09290000       1.58400000      -0.00620000
C       -0.04160000       0.05250000       0.03280000
C        0.65580000      -0.61290000      -1.13480000
C        1.79390000      -1.25350000      -0.81520000
C        2.78470000      -1.93870000      -1.69870000
C        1.99370000      -1.10800000       0.64320000
O        3.00090000      -1.29620000       1.29340000
C        0.68370000      -0.58970000       1.24190000
O        0.90480000       0.25470000       2.33980000
H        1.14440000       1.88450000      -0.00340000
H       -0.37740000       1.98900000      -0.90780000
H       -0.38490000       2.02810000       0.86960000
H       -1.10930000      -0.19800000       0.03150000
H        0.26860000      -0.52370000      -2.14630000
H        3.78460000      -1.52040000      -1.54180000
H        2.85370000      -3.00530000      -1.45640000
H        2.52260000      -1.84020000      -2.75490000
H        0.11030000      -1.48280000       1.54930000
H        1.78400000       0.01890000       2.67220000
