18
Properties=species:S:1:pos:R:3 gdb_10699=T pbc="F F F"
C        0.26020000       1.41550000       0.37580000
C       -0.09680000      -0.02510000      -0.01040000
O       -1.49430000      -0.19500000      -0.17460000
C        0.66190000      -0.50040000      -1.24970000
C        2.11080000      -0.95010000      -1.11870000
C        1.05840000      -1.97390000      -1.36310000
C        0.28010000       0.11470000      -2.53890000
O       -0.64640000       0.88060000      -2.69640000
H        1.32870000       1.51660000       0.59340000
H        0.00590000       2.10780000      -0.43160000
H       -0.30430000       1.70320000       1.26670000
H        0.17840000      -0.68700000       0.82070000
H       -1.73810000       0.34970000      -0.93540000
H        2.79580000      -0.70520000      -1.92410000
H        2.54270000      -0.87330000      -0.12690000
H        0.73490000      -2.60750000      -0.54540000
H        1.00790000      -2.44160000      -2.34060000
H        0.90880000      -0.19440000      -3.40580000
