14
Properties=species:S:1:pos:R:3 gdb_128378=T pbc="F F F"
C       -0.02850000       1.42790000       0.08420000
N        0.03660000      -0.00870000      -0.07510000
C        0.63710000      -0.61800000      -1.10690000
N        1.20940000       0.08830000      -2.04570000
O        1.80060000      -0.68780000      -3.06760000
C        1.74500000      -2.00800000      -3.01990000
N        1.20110000      -2.76290000      -2.13080000
C        0.58680000      -2.11790000      -1.07450000
O        0.02960000      -2.68380000      -0.15640000
H        0.97570000       1.86260000       0.14150000
H       -0.54570000       1.89390000      -0.76200000
H       -0.56960000       1.65630000       1.00310000
H       -0.37400000      -0.64330000       0.59370000
H        2.25030000      -2.43340000      -3.88520000
