17
Properties=species:S:1:pos:R:3 gdb_55889=T pbc="F F F"
N        0.85990000       0.05720000      -0.26110000
C       -0.27860000       0.41800000       0.38400000
O       -0.37070000       1.37040000       1.13310000
C       -1.49460000      -0.46260000       0.06990000
N       -1.11820000      -1.74580000      -0.51660000
C       -1.10160000      -2.90620000       0.36020000
C       -2.16550000      -2.77220000      -0.68930000
C       -3.52870000      -2.51970000      -0.31240000
C       -4.67940000      -2.30490000      -0.03610000
H        1.68410000       0.62300000      -0.14970000
H        0.84730000      -0.72540000      -0.89410000
H       -2.08440000      -0.54780000       0.99090000
H       -2.11030000       0.08300000      -0.65420000
H       -0.28900000      -3.61160000       0.21050000
H       -1.41460000      -2.76840000       1.39290000
H       -2.05000000      -3.34690000      -1.60540000
H       -5.69350000      -2.11880000       0.21880000
