17
Properties=species:S:1:pos:R:3 gdb_97079=T pbc="F F F"
C       -0.07240000       1.44980000       0.02070000
N       -0.02930000       0.00180000       0.14470000
C       -1.07950000      -0.67800000       0.07270000
C       -1.18100000      -2.18540000       0.15560000
C       -2.65570000      -2.41900000       0.50300000
C       -3.32660000      -1.18850000      -0.14960000
O       -2.35460000      -0.14540000      -0.08940000
C       -3.71700000      -1.44030000      -1.55000000
N       -4.02950000      -1.65500000      -2.64130000
H        0.60010000       1.75340000      -0.78890000
H       -1.06870000       1.86010000      -0.17480000
H        0.32010000       1.89600000       0.94130000
H       -0.93270000      -2.61750000      -0.82020000
H       -0.47870000      -2.58490000       0.88660000
H       -3.06160000      -3.36010000       0.13140000
H       -2.81680000      -2.37080000       1.58310000
H       -4.21200000      -0.85110000       0.39600000
