21
Properties=species:S:1:pos:R:3 gdb_90619=T pbc="F F F"
C        0.01280000       1.52260000      -0.03340000
C       -0.02680000       0.00900000       0.05520000
O        0.93650000      -0.60680000      -0.85740000
C        1.70750000      -1.13990000       0.24550000
C        0.68640000      -0.62760000       1.27190000
C        0.36960000      -2.09080000       1.65260000
C       -0.00820000      -2.93140000       0.45890000
C        1.44020000      -2.61010000       0.66950000
C        2.51690000      -3.64370000       0.83750000
H        1.00890000       1.90440000       0.21250000
H       -0.23760000       1.85120000      -1.04680000
H       -0.71090000       1.96490000       0.66070000
H       -1.04100000      -0.36000000      -0.14340000
H        2.75890000      -0.84050000       0.21380000
H        0.96490000       0.02750000       2.09670000
H        0.15720000      -2.42420000       2.66190000
H       -0.28340000      -3.95310000       0.70310000
H       -0.54330000      -2.51750000      -0.38850000
H        2.88540000      -3.99400000      -0.13460000
H        3.37480000      -3.24850000       1.39410000
H        2.14210000      -4.51680000       1.38200000
