16
Properties=species:S:1:pos:R:3 gdb_41071=T pbc="F F F"
C        0.00660000       1.46610000       0.25490000
O        1.38300000       1.58590000      -0.26880000
C        1.17340000       0.32870000      -0.87230000
C        1.91850000      -0.89400000      -1.42160000
C        0.69370000      -1.75620000      -1.62480000
C       -0.50330000      -0.80550000      -1.25090000
C        0.00270000      -0.08000000       0.01510000
C        0.29580000       0.16530000      -2.17010000
N        1.22130000      -0.90980000      -2.74560000
H       -0.03690000       1.78570000       1.29760000
H       -0.69240000       2.05190000      -0.35070000
H        2.92150000      -1.27580000      -1.27840000
H        0.70910000      -2.83960000      -1.66980000
H       -1.51350000      -1.17030000      -1.42890000
H        0.17240000      -0.66120000       0.92320000
H       -0.08310000       0.96410000      -2.80190000
