17
Properties=species:S:1:pos:R:3 gdb_51021=T pbc="F F F"
N       -0.12140000       1.30220000       0.06990000
C       -0.04080000       0.04390000       0.03970000
O       -1.16720000      -0.69030000      -0.11060000
C       -1.02940000      -2.11220000      -0.04250000
C       -0.84210000      -2.64690000       1.41530000
N       -2.30140000      -2.86130000       1.50790000
C       -2.45450000      -2.72680000       0.04200000
C       -0.13170000      -2.62740000      -1.06350000
C        0.60990000      -3.06540000      -1.90220000
H        0.80750000       1.70540000       0.17490000
H        0.87380000      -0.55640000       0.11040000
H       -0.22830000      -3.55580000       1.43730000
H       -0.44220000      -1.92050000       2.13080000
H       -2.57700000      -3.75910000       1.88650000
H       -3.25030000      -2.04630000      -0.27350000
H       -2.52620000      -3.66860000      -0.51430000
H        1.26110000      -3.44790000      -2.64950000
