15
Properties=species:S:1:pos:R:3 gdb_124305=T pbc="F F F"
C        0.01430000       1.50310000      -0.05000000
C        0.03480000      -0.00550000       0.08440000
O        0.07820000      -0.57230000       1.14620000
C       -0.00420000      -0.78300000      -1.24650000
C       -0.04780000      -2.25500000      -1.05090000
N       -1.08320000      -3.04030000      -1.08710000
C       -0.51430000      -4.26020000      -0.81640000
N        0.77660000      -4.24650000      -0.63160000
O        1.09810000      -2.89330000      -0.78890000
H        0.85140000       1.84470000      -0.66900000
H       -0.90540000       1.82590000      -0.55090000
H        0.07400000       1.96090000       0.93750000
H       -0.88630000      -0.47550000      -1.81570000
H        0.87630000      -0.50250000      -1.83590000
H       -1.07750000      -5.18020000      -0.76040000
