25
Properties=species:S:1:pos:R:3 gdb_118147=T pbc="F F F"
C       -0.02960000       1.56530000      -0.18950000
C        0.01820000       0.04500000      -0.01050000
C       -1.37720000      -0.58860000       0.05130000
C       -1.39660000      -2.12600000       0.14380000
C       -0.77610000      -2.64460000       1.44970000
C       -2.82400000      -2.65150000      -0.01190000
C       -3.51610000      -2.50570000      -1.38730000
O       -3.75440000      -3.92480000      -1.47220000
C       -3.02630000      -4.16600000      -0.25180000
H        0.97630000       1.99450000      -0.23230000
H       -0.54870000       1.83960000      -1.11470000
H       -0.56080000       2.04510000       0.64030000
H        0.58160000      -0.40390000      -0.83950000
H        0.57820000      -0.19190000       0.90170000
H       -1.92790000      -0.17250000       0.90780000
H       -1.93630000      -0.28100000      -0.84310000
H       -0.80610000      -2.52240000      -0.69680000
H       -0.82420000      -3.73720000       1.50530000
H        0.27540000      -2.36010000       1.54270000
H       -1.30930000      -2.24360000       2.32020000
H       -3.44560000      -2.27500000       0.80750000
H       -4.44940000      -1.93070000      -1.41440000
H       -2.85990000      -2.15230000      -2.19570000
H       -2.09930000      -4.72880000      -0.43330000
H       -3.62970000      -4.70890000       0.48540000
