19
Properties=species:S:1:pos:R:3 gdb_110244=T pbc="F F F"
C       -0.10500000       1.55980000       0.16660000
C       -0.01840000       0.03610000       0.17060000
C        0.98920000      -0.73330000      -0.76330000
C        2.13610000      -0.50370000       0.29950000
C        2.95840000       0.78500000       0.45730000
O        4.16630000       0.51810000       1.15690000
C        0.86270000      -0.80900000       1.17710000
C        0.64530000      -1.92670000       0.14390000
O        0.36590000      -3.08310000       0.08110000
H        0.83090000       2.06500000      -0.06650000
H       -0.83200000       1.87000000      -0.59130000
H       -0.46540000       1.93260000       1.13150000
H       -1.04000000      -0.35460000       0.10620000
H        1.06550000      -0.69060000      -1.84830000
H        2.87550000      -1.31210000       0.29670000
H        3.26800000       1.15410000      -0.52630000
H        2.40230000       1.58380000       0.95610000
H        3.93900000       0.29350000       2.06500000
H        0.78580000      -0.85230000       2.26260000
