19
Properties=species:S:1:pos:R:3 gdb_58861=T pbc="F F F"
C       -0.05970000       1.51550000       0.21060000
N       -0.01550000       0.06470000       0.04080000
C        0.84660000      -0.59250000       1.00590000
C       -1.31060000      -0.49640000      -0.08620000
C       -2.25610000      -0.98440000       1.04910000
C       -1.85140000      -1.90000000      -0.05870000
O       -2.70070000      -1.63630000      -1.21280000
C       -2.16290000      -0.35590000      -1.31470000
N       -2.33100000       0.53480000      -2.17860000
H        0.95350000       1.91770000       0.11600000
H       -0.68170000       1.95030000      -0.57460000
H       -0.46230000       1.81940000       1.19370000
H        0.53700000      -0.43970000       2.05670000
H        0.87960000      -1.66810000       0.80810000
H        1.86230000      -0.19900000       0.90190000
H       -1.75200000      -1.14250000       1.99780000
H       -3.28780000      -0.65390000       1.11800000
H       -1.39290000      -2.87750000      -0.00010000
H       -2.98490000       0.23430000      -2.90340000
