19
Properties=species:S:1:pos:R:3 gdb_40875=T pbc="F F F"
C        0.07860000       1.41660000      -0.51770000
C        1.39670000       1.62330000       0.28000000
C        1.27150000       0.16650000       0.78210000
C       -0.20310000       0.13920000       0.32540000
C        2.36010000      -0.86680000       0.33740000
O        3.18110000      -0.36280000       1.44060000
C        1.88830000      -0.30500000       2.13330000
C        1.47990000      -1.78770000       2.16320000
C        1.80550000      -2.17460000       0.92720000
H       -0.66330000       2.21620000      -0.46890000
H        0.26450000       1.18240000      -1.56940000
H        2.30050000       1.88130000      -0.27580000
H        1.27640000       2.34480000       1.09440000
H       -0.88870000       0.33710000       1.15550000
H       -0.54860000      -0.75480000      -0.19840000
H        2.84860000      -0.85850000      -0.63700000
H        1.88370000       0.29280000       3.04480000
H        1.03600000      -2.33110000       2.98410000
H        1.70950000      -3.13040000       0.43380000
