16
Properties=species:S:1:pos:R:3 gdb_93599=T pbc="F F F"
O       -0.03530000       1.42890000       0.05710000
C        0.03320000       0.01460000       0.00750000
C        0.72970000      -0.54810000       1.24640000
O        0.68620000      -1.97910000       1.25490000
C       -0.50080000      -2.52470000       0.85650000
N       -1.48760000      -1.94580000       0.30600000
C       -1.39320000      -0.52850000      -0.01620000
C       -0.53490000      -3.93230000       1.13340000
C       -0.55370000      -5.11100000       1.36510000
H        0.83590000       1.78680000      -0.14130000
H        0.56990000      -0.33030000      -0.88890000
H        1.78920000      -0.28010000       1.28260000
H        0.23840000      -0.15740000       2.14670000
H       -1.99800000       0.04550000       0.69860000
H       -1.84830000      -0.36960000      -0.99920000
H       -0.58210000      -6.15350000       1.56700000
