16
Properties=species:S:1:pos:R:3 gdb_127301=T pbc="F F F"
C       -0.05090000       1.41590000       0.08720000
N        0.04500000      -0.02590000      -0.00960000
C        0.18130000      -0.78010000      -1.13410000
C        0.19110000      -2.09770000      -0.73650000
C        0.05180000      -2.03960000       0.66480000
N       -0.03780000      -0.77750000       1.09700000
C        0.00800000      -3.19880000       1.59540000
N       -0.12880000      -2.86200000       2.90670000
O        0.08950000      -4.34700000       1.19390000
H        0.18710000       1.85190000      -0.88420000
H       -1.06110000       1.71700000       0.37990000
H        0.65810000       1.78310000       0.83230000
H        0.26010000      -0.32070000      -2.10680000
H        0.28780000      -2.98250000      -1.34170000
H       -0.19390000      -1.89700000       3.18270000
H       -0.16850000      -3.59550000       3.59280000
