17
Properties=species:S:1:pos:R:3 gdb_127267=T pbc="F F F"
C        0.00620000       1.47590000      -0.02500000
N       -0.03380000       0.03070000      -0.02440000
C       -0.02190000      -0.79800000      -1.10190000
C        0.02000000      -2.08910000      -0.60290000
N        0.03010000      -3.25640000      -1.37070000
C        0.06690000      -4.54750000      -0.91590000
N        0.09600000      -4.86380000       0.32010000
C        0.03600000      -1.93010000       0.80330000
N        0.00720000      -0.64070000       1.13750000
H        1.02380000       1.85040000      -0.18430000
H       -0.64440000       1.86860000      -0.81090000
H       -0.35010000       1.81820000       0.94650000
H       -0.04820000      -0.42040000      -2.11200000
H        0.01120000      -3.13680000      -2.36890000
H        0.06770000      -5.25790000      -1.75190000
H        0.12000000      -5.87540000       0.41980000
H        0.05850000      -2.70630000       1.54720000
