21
Properties=species:S:1:pos:R:3 gdb_114904=T pbc="F F F"
O       -0.12990000       1.67040000       0.26310000
C       -0.03920000       0.26660000       0.46240000
C       -1.29150000      -0.45990000      -0.00560000
C       -1.52970000      -0.55520000      -1.54500000
C       -1.76360000      -2.08990000      -1.40890000
O       -0.84190000      -2.93190000      -2.07050000
C        0.36370000      -2.93540000      -1.31370000
C       -0.06940000      -2.83970000       0.16020000
C       -1.37120000      -2.01870000       0.10160000
H       -0.25450000       1.82200000      -0.67960000
H        0.85490000      -0.14190000      -0.03680000
H        0.10230000       0.12910000       1.54040000
H       -2.14670000       0.00170000       0.49660000
H       -2.37280000       0.01610000      -1.93990000
H       -0.64530000      -0.32970000      -2.15110000
H       -2.76830000      -2.43080000      -1.66620000
H        0.90600000      -3.85310000      -1.55560000
H        1.00220000      -2.08170000      -1.59130000
H       -0.29290000      -3.83890000       0.54560000
H        0.70560000      -2.40530000       0.79670000
H       -2.10590000      -2.37850000       0.82330000
