18
Properties=species:S:1:pos:R:3 gdb_51424=T pbc="F F F"
N        0.04080000       1.36570000       0.03280000
C        0.04450000       0.10630000      -0.01680000
O       -1.09220000      -0.58100000       0.22260000
C       -1.05270000      -1.98770000       0.15900000
C       -1.71210000      -2.80450000       1.29320000
C       -3.11210000      -2.17890000       1.43650000
C       -3.46790000      -2.12010000      -0.08410000
C       -2.16030000      -2.73040000      -0.62210000
O       -1.92320000      -3.84780000       0.29070000
H        0.97130000       1.72410000      -0.17100000
H        0.90360000      -0.54030000      -0.24280000
H       -0.05760000      -2.36470000      -0.08850000
H       -1.17580000      -3.13830000       2.18070000
H       -3.77620000      -2.83160000       2.00570000
H       -3.08190000      -1.19450000       1.90790000
H       -4.32650000      -2.74060000      -0.34620000
H       -3.63280000      -1.10340000      -0.44650000
H       -2.07860000      -2.98910000      -1.67720000
