19
Properties=species:S:1:pos:R:3 gdb_38287=T pbc="F F F"
C       -0.13610000       1.52660000      -0.03560000
C        1.40360000       1.40890000       0.04790000
O        1.20620000       0.20380000       0.87630000
C        0.04230000      -0.02530000       0.00860000
C        0.67150000      -0.23550000      -1.34310000
C        0.39130000      -0.59650000      -2.59000000
C        1.36420000       0.08820000      -3.54690000
C        1.90300000       1.28320000      -2.69500000
C        1.85690000       0.71760000      -1.26620000
H       -0.55980000       1.90620000       0.89520000
H       -0.60290000       1.98060000      -0.91260000
H        2.03670000       2.16180000       0.51590000
H       -0.70200000      -0.70680000       0.41560000
H       -0.43250000      -1.21660000      -2.92380000
H        2.18210000      -0.58080000      -3.85220000
H        0.87590000       0.41940000      -4.47000000
H        2.89660000       1.61800000      -3.00680000
H        1.21500000       2.13090000      -2.79590000
H        2.78430000       0.17750000      -1.03500000
