20
Properties=species:S:1:pos:R:3 gdb_60286=T pbc="F F F"
C        0.00600000       1.46320000       0.09060000
C       -0.08860000      -0.06440000       0.08580000
O        0.52840000      -0.62250000       1.23970000
C       -1.54770000      -0.52830000      -0.06420000
N       -1.65410000      -1.98190000      -0.11950000
C       -1.75210000      -2.60550000       0.95700000
C       -1.85410000      -4.05810000       1.36720000
C       -1.91810000      -3.48350000       2.79710000
O       -1.81750000      -2.12550000       2.26730000
H        1.04710000       1.77020000       0.21970000
H       -0.36870000       1.88980000      -0.84610000
H       -0.57750000       1.88670000       0.91640000
H        0.48510000      -0.45970000      -0.76190000
H       -0.12130000      -0.63940000       1.95210000
H       -2.13780000      -0.10440000       0.76370000
H       -1.95120000      -0.11970000      -0.99640000
H       -2.74950000      -4.57260000       1.01510000
H       -0.97290000      -4.65740000       1.13330000
H       -2.85860000      -3.62280000       3.33510000
H       -1.07060000      -3.71060000       3.44770000
