23
Properties=species:S:1:pos:R:3 gdb_68077=T pbc="F F F"
C       -0.11130000       1.52600000       0.01160000
C        0.08010000       0.02690000      -0.02910000
C        0.76050000      -0.62650000      -1.25520000
C       -0.35220000      -1.68440000      -1.06570000
C       -1.06460000      -2.24770000      -2.27420000
C        0.04390000      -2.73160000      -0.01380000
C        0.92330000      -2.08320000       1.08190000
C        0.58570000      -0.58700000       1.28530000
O       -1.15600000      -0.68230000      -0.36370000
H        0.84820000       2.03400000       0.15610000
H       -0.55810000       1.88000000      -0.92160000
H       -0.77330000       1.80880000       0.83730000
H        0.60460000      -0.03770000      -2.16210000
H        1.80610000      -0.93390000      -1.18380000
H       -0.40100000      -2.91100000      -2.83920000
H       -1.94400000      -2.82570000      -1.96990000
H       -1.39700000      -1.44060000      -2.93290000
H       -0.88660000      -3.12590000       0.41010000
H        0.57380000      -3.57330000      -0.47510000
H        0.83460000      -2.63170000       2.02440000
H        1.97430000      -2.16880000       0.78480000
H        1.46430000      -0.04850000       1.65990000
H       -0.21320000      -0.46040000       2.02470000
