23
Properties=species:S:1:pos:R:3 gdb_57527=T pbc="F F F"
C       -0.04940000       1.48980000       0.23490000
C        0.04860000      -0.03230000       0.03180000
C        0.86990000      -0.66390000       1.15880000
O       -1.24660000      -0.62020000       0.12750000
C        0.68610000      -0.40450000      -1.33420000
C       -0.00220000       0.18470000      -2.56850000
C        0.67660000       1.36370000      -3.23040000
C       -0.89940000      -0.65840000      -3.37580000
O       -1.44790000       0.31650000      -2.48000000
H        0.93500000       1.96920000       0.19000000
H       -0.69130000       1.94850000      -0.52260000
H       -0.48760000       1.69760000       1.21510000
H        0.38290000      -0.47340000       2.11930000
H        0.93660000      -1.74740000       1.02330000
H        1.88260000      -0.25070000       1.19320000
H       -1.73820000      -0.31220000      -0.64720000
H        1.73510000      -0.08800000      -1.34290000
H        0.68250000      -1.49720000      -1.39490000
H        1.65250000       1.06490000      -3.62820000
H        0.06730000       1.74950000      -4.05150000
H        0.84230000       2.17400000      -2.51400000
H       -1.04900000      -0.44090000      -4.43250000
H       -1.06430000      -1.69490000      -3.08650000
