16
Properties=species:S:1:pos:R:3 gdb_44106=T pbc="F F F"
O       -0.13200000       0.10860000       0.29000000
C       -0.10340000       1.30120000       0.16030000
C       -1.36640000       2.24280000       0.01430000
C       -0.63970000       3.44310000       0.54960000
C       -0.40140000       3.61870000       1.85950000
C        1.08950000       3.70140000       2.09110000
N        1.70530000       3.35550000       0.79240000
C        1.16190000       2.16130000      -0.01010000
C        0.67520000       3.55500000      -0.20330000
H       -1.66970000       2.30100000      -1.03670000
H       -2.19820000       1.87410000       0.61550000
H       -1.10710000       3.40830000       2.65530000
H        1.47830000       4.68910000       2.37490000
H        1.39100000       2.99670000       2.87410000
H        1.96170000       1.69840000      -0.57870000
H        0.83240000       4.17720000      -1.07920000
