25
Properties=species:S:1:pos:R:3 gdb_123076=T pbc="F F F"
C       -0.06940000       1.58790000       0.09900000
C       -0.01640000       0.05920000       0.03420000
C        0.69510000      -0.46840000      -1.21650000
C        0.75200000      -1.99780000      -1.28800000
C        1.46340000      -2.52180000      -2.53870000
C        1.51170000      -4.06220000      -2.59450000
C        2.18680000      -4.57800000      -3.78080000
C        2.74820000      -4.97830000      -4.76820000
C        3.42500000      -5.47530000      -5.95820000
H        0.93790000       2.01940000       0.10340000
H       -0.60060000       2.00290000      -0.76500000
H       -0.58270000       1.93330000       1.00190000
H        0.48980000      -0.32830000       0.92840000
H       -1.03710000      -0.34470000       0.06660000
H        0.18930000      -0.08090000      -2.11200000
H        1.71670000      -0.06440000      -1.24990000
H        1.25810000      -2.38470000      -0.39220000
H       -0.27000000      -2.40130000      -1.25450000
H        0.96010000      -2.14950000      -3.43920000
H        2.48810000      -2.13280000      -2.57700000
H        2.01260000      -4.44010000      -1.69240000
H        0.48710000      -4.45680000      -2.55320000
H        3.44460000      -6.57090000      -5.97740000
H        2.92460000      -5.13930000      -6.87340000
H        4.46300000      -5.12690000      -6.00360000
