19
Properties=species:S:1:pos:R:3 gdb_35734=T pbc="F F F"
C        0.32680000      -0.97500000       0.76450000
C        0.14880000       0.13840000       0.34760000
C       -0.07910000       1.49840000      -0.15670000
C       -0.90730000       2.36050000       0.81990000
C        0.18750000       2.89640000       1.75400000
C        1.36870000       3.04940000       0.80740000
C        2.05600000       4.35370000       0.52830000
C        2.78380000       3.23100000       1.25550000
O        1.14910000       2.21090000      -0.32110000
H        0.49110000      -1.96040000       1.12480000
H       -0.54760000       1.43710000      -1.14490000
H       -1.37480000       3.17700000       0.26150000
H       -1.68520000       1.79110000       1.33020000
H       -0.08490000       3.83560000       2.24020000
H        0.41160000       2.16050000       2.53340000
H        2.34400000       4.54440000      -0.49950000
H        1.75890000       5.23250000       1.09170000
H        2.98300000       3.33990000       2.31700000
H        3.54510000       2.69390000       0.70120000
