16
Properties=species:S:1:pos:R:3 gdb_41651=T pbc="F F F"
C       -0.00230000       1.41380000      -0.17590000
O        1.28310000       1.97720000      -0.04140000
C        1.92930000       1.56580000       1.14310000
C        1.18160000       1.53220000       2.47590000
C        0.35670000       0.28910000       2.48000000
C        0.61240000      -0.41890000       1.14960000
O       -0.02130000       0.01120000      -0.03500000
C        2.06570000       0.04670000       1.34880000
N        1.80950000       0.22160000       2.87030000
H       -0.68650000       1.87020000       0.55660000
H       -0.33690000       1.63250000      -1.19110000
H        2.87350000       2.10730000       1.20760000
H        1.03440000       2.32960000       3.19400000
H       -0.43300000       0.11810000       3.20120000
H        0.48060000      -1.49900000       1.21930000
H        2.91950000      -0.52100000       0.98860000
