15
Properties=species:S:1:pos:R:3 gdb_52760=T pbc="F F F"
C        0.01190000       1.50030000       0.04990000
C       -0.01130000       0.04660000       0.01910000
C       -0.04590000      -1.15610000       0.01490000
C       -0.04920000      -2.60640000      -0.06400000
O       -1.34700000      -3.11200000       0.23700000
C       -1.43720000      -4.43440000       0.52340000
O       -2.48330000      -4.96940000       0.71750000
C        0.40690000      -3.07380000      -1.46390000
O       -0.11820000      -3.97570000      -2.05150000
H        0.86940000       1.87080000       0.62120000
H        0.07170000       1.91820000      -0.96030000
H       -0.89730000       1.88970000       0.52000000
H        0.69030000      -3.01820000       0.64580000
H       -0.45260000      -4.93380000       0.58620000
H        1.27770000      -2.51380000      -1.86270000
