19
Properties=species:S:1:pos:R:3 gdb_53130=T pbc="F F F"
C        0.27590000       1.64270000      -0.20760000
C        0.10520000       0.20120000      -0.09480000
C       -0.06220000      -0.98770000       0.01800000
C       -0.14440000      -2.42460000       0.06530000
C       -0.44910000      -3.35730000       1.22720000
C       -1.65930000      -2.99520000       2.13090000
C       -2.39540000      -1.74200000       1.74190000
C       -2.56550000      -2.98370000       0.90960000
C       -1.35310000      -3.34580000       0.00880000
H        1.26990000       1.95530000       0.13190000
H        0.16040000       1.97920000      -1.24410000
H       -0.46300000       2.18040000       0.39760000
H        0.65260000      -2.87270000      -0.53030000
H        0.27410000      -4.10930000       1.51840000
H       -1.82150000      -3.48870000       3.08020000
H       -3.25060000      -1.53020000       2.37850000
H       -1.88760000      -0.86250000       1.37330000
H       -3.52550000      -3.46710000       0.78370000
H       -1.42880000      -4.08760000      -0.77680000
