21
Properties=species:S:1:pos:R:3 gdb_73451=T pbc="F F F"
C       -0.02730000       1.44110000       0.05550000
C       -0.00560000      -0.06590000      -0.01560000
C        1.01300000      -0.73630000      -0.93830000
O        0.43370000      -1.98690000      -1.32080000
C       -0.60990000      -2.24260000      -0.39390000
C       -0.08030000      -2.33350000       1.07360000
C       -0.43170000      -0.85390000       1.22430000
C       -1.27200000      -0.87720000      -0.05330000
C       -2.66220000      -0.42120000      -0.37640000
H        0.92260000       1.83160000       0.43850000
H       -0.19440000       1.88500000      -0.93260000
H       -0.81770000       1.79990000       0.72190000
H        1.18980000      -0.14170000      -1.84340000
H        1.98300000      -0.89690000      -0.44530000
H       -1.21770000      -3.06380000      -0.77360000
H       -0.72200000      -2.96360000       1.69640000
H        0.96130000      -2.65050000       1.19230000
H       -0.63890000      -0.33470000       2.15440000
H       -2.85020000       0.58900000       0.00170000
H       -2.83010000      -0.40510000      -1.46000000
H       -3.41700000      -1.08190000       0.06520000
