17
Properties=species:S:1:pos:R:3 gdb_84627=T pbc="F F F"
C       -0.08480000       1.37350000       0.05150000
N        0.35740000      -0.00900000       0.02150000
C        0.17280000      -0.79020000      -1.09810000
N        0.06830000      -2.06700000      -1.09320000
C        0.02060000      -2.67610000       0.25730000
C       -0.89060000      -1.80870000       1.18820000
C        0.30570000      -0.79820000       1.26100000
C        1.17860000      -2.06480000       1.04970000
O        2.23370000      -2.43000000       1.47490000
H        0.54320000       1.95460000       0.73370000
H        0.01120000       1.80200000      -0.94940000
H       -1.13300000       1.47660000       0.37120000
H        0.14790000      -0.25050000      -2.04440000
H       -0.11260000      -3.75430000       0.19020000
H       -1.81530000      -1.44070000       0.74000000
H       -1.08150000      -2.28830000       2.14990000
H        0.47010000      -0.16840000       2.13440000
