15
Properties=species:S:1:pos:R:3 gdb_34246=T pbc="F F F"
N       -0.04350000      -1.12560000       0.09960000
C       -0.06420000       0.02850000       0.04430000
C       -0.07400000       1.46570000      -0.03040000
O       -1.01460000       2.16550000       0.77320000
C       -0.67300000       3.32540000      -0.04990000
C        0.74800000       3.63150000       0.45180000
C        1.31510000       2.29800000      -0.08170000
N        1.12400000       2.37030000      -1.55510000
C       -0.30800000       2.35010000      -1.27380000
H       -1.44780000       4.08700000      -0.07270000
H        1.23280000       4.49160000      -0.01860000
H        0.76030000       3.74020000       1.53760000
H        2.25620000       1.90310000       0.29360000
H        1.47850000       3.22470000      -1.98260000
H       -1.03310000       2.15980000      -2.06200000
