20
Properties=species:S:1:pos:R:3 gdb_107430=T pbc="F F F"
C       -0.36700000       1.50200000       0.09760000
C        0.19030000       0.07280000       0.05730000
C        0.76600000      -0.31380000      -1.28270000
O        1.76750000      -1.33790000      -1.28230000
C        2.14750000      -0.03290000      -1.72930000
C        2.18630000       0.14670000      -3.24440000
C        0.74490000      -0.06780000      -3.71140000
N        0.21330000      -1.42300000      -3.48000000
C       -0.11440000      -0.34070000      -2.52670000
H        0.41100000       2.23540000      -0.13840000
H       -1.18290000       1.64240000      -0.61890000
H       -0.75990000       1.73620000       1.09130000
H        0.98130000      -0.04380000       0.80530000
H       -0.59830000      -0.64180000       0.32690000
H        2.88530000       0.47020000      -1.10570000
H        2.50710000       1.16740000      -3.48240000
H        2.88550000      -0.54780000      -3.72040000
H        0.38200000       0.49340000      -4.56730000
H       -0.58780000      -1.56710000      -4.09190000
H       -1.13790000       0.01020000      -2.45350000
