23
Properties=species:S:1:pos:R:3 gdb_120487=T pbc="F F F"
C       -0.83980000       1.39920000       0.44650000
C       -0.41400000      -0.05460000       0.33450000
O       -1.51190000      -0.81130000      -0.14660000
C       -1.24600000      -2.18950000      -0.32740000
C       -1.42220000      -3.04030000       0.96160000
C       -2.89960000      -3.33540000       0.55430000
C       -3.94450000      -2.48860000       1.27340000
C       -2.53940000      -2.84170000      -0.89050000
O       -3.41830000      -2.00880000      -1.59000000
H       -0.00710000       2.01180000       0.80450000
H       -1.15880000       1.78280000      -0.52690000
H       -1.67290000       1.50480000       1.14740000
H        0.43700000      -0.16030000      -0.35770000
H       -0.08660000      -0.43790000       1.31300000
H       -0.31570000      -2.31850000      -0.89830000
H       -0.78470000      -3.92860000       0.96160000
H       -1.27720000      -2.50570000       1.90410000
H       -3.18360000      -4.39100000       0.60180000
H       -3.65810000      -1.43300000       1.28620000
H       -4.91650000      -2.56700000       0.77700000
H       -4.06150000      -2.81820000       2.31140000
H       -2.29710000      -3.69090000      -1.53760000
H       -3.24900000      -1.11470000      -1.26510000
