18
Properties=species:S:1:pos:R:3 gdb_65630=T pbc="F F F"
O       -0.08370000       1.31760000       0.11650000
C        0.01950000      -0.08430000       0.03450000
C        0.34290000      -0.88840000       1.34600000
C       -0.93230000      -1.75310000       1.13560000
C       -2.16160000      -1.28770000       1.94880000
C       -2.45140000      -0.19750000       0.87140000
C       -1.35270000      -0.80710000      -0.04650000
C        0.90830000      -0.47100000      -1.07280000
N        1.62660000      -0.76220000      -1.93090000
H        0.80220000       1.69270000       0.17860000
H        1.29370000      -1.42320000       1.33460000
H        0.30410000      -0.24170000       2.22670000
H       -0.76320000      -2.82180000       1.00940000
H       -2.94580000      -2.04800000       1.99150000
H       -1.96430000      -0.94140000       2.96770000
H       -3.45370000      -0.23400000       0.44130000
H       -2.24570000       0.82920000       1.17620000
H       -1.66520000      -1.15270000      -1.03070000
