18
Properties=species:S:1:pos:R:3 gdb_84295=T pbc="F F F"
C       -0.06670000       1.60130000      -0.06500000
C        0.01770000       0.06910000       0.01490000
C        0.80590000      -0.52380000      -1.13420000
C        1.82450000      -1.30220000      -0.75140000
C        1.88750000      -1.36700000       0.72670000
O        2.68670000      -1.95800000       1.41430000
C        0.74760000      -0.50090000       1.23490000
C        0.89490000       0.18360000       2.54900000
N        0.04530000      -1.00400000       2.43650000
H        0.92810000       2.05210000      -0.00320000
H       -0.52520000       1.91400000      -1.00900000
H       -0.67740000       2.00760000       0.74700000
H       -1.00760000      -0.32920000      -0.02370000
H        0.53930000      -0.30040000      -2.16270000
H        2.52290000      -1.82710000      -1.39040000
H        1.81780000       0.02180000       3.09890000
H        0.43320000       1.15820000       2.67870000
H       -0.93120000      -0.71750000       2.38280000
