17
Properties=species:S:1:pos:R:3 gdb_41114=T pbc="F F F"
C       -0.00680000       1.43510000       0.23970000
C        1.50130000       1.56470000      -0.16130000
C        1.39620000       0.18910000      -0.80550000
N        2.30080000      -0.94330000      -0.72340000
C        1.68910000      -1.83730000      -1.40220000
N        0.52540000      -1.44010000      -2.14580000
C       -0.52210000      -0.59870000      -1.35700000
C        0.58580000       0.02010000      -2.12550000
C        0.02820000      -0.10630000      -0.04800000
H       -0.24050000       1.69370000       1.27340000
H       -0.68550000       1.98420000      -0.41720000
H        1.79620000       2.40180000      -0.79980000
H        2.15280000       1.54130000       0.71610000
H        1.99740000      -2.87610000      -1.45540000
H       -1.54280000      -0.81340000      -1.65030000
H        0.61270000       0.59140000      -3.04820000
H        0.01360000      -0.74790000       0.83500000
