21
Properties=species:S:1:pos:R:3 gdb_118951=T pbc="F F F"
C       -0.04640000       1.65490000       0.18180000
C       -0.03290000       0.13350000       0.09680000
C       -1.38930000      -0.48280000      -0.23910000
C       -1.94170000      -0.07530000      -1.60100000
O       -3.11240000      -0.85000000      -1.82860000
O        0.98510000      -0.31960000      -0.85320000
C        1.80950000      -0.86050000       0.19500000
C        0.72610000      -0.57350000       1.25600000
O        1.06050000       0.27360000       2.32860000
H        0.92560000       2.03260000       0.50300000
H       -0.27740000       2.08090000      -0.79840000
H       -0.79730000       1.99960000       0.89920000
H       -1.29290000      -1.57430000      -0.23780000
H       -2.11160000      -0.22090000       0.54410000
H       -2.17540000       1.00000000      -1.61810000
H       -1.17740000      -0.26410000      -2.36880000
H       -3.45140000      -0.62700000      -2.70030000
H        2.07250000      -1.90990000       0.01560000
H        2.72520000      -0.27490000       0.35180000
H        0.20740000      -1.47400000       1.60710000
H        1.45370000      -0.25780000       3.02700000
