19
Properties=species:S:1:pos:R:3 gdb_115763=T pbc="F F F"
O       -0.02870000       1.47560000      -0.39870000
C        0.04350000       0.19750000       0.20120000
C       -1.31230000      -0.48700000       0.09910000
O       -1.69660000      -0.58200000      -1.29880000
C       -1.69020000      -2.02790000      -1.25260000
C       -1.43460000      -2.02530000       0.26880000
C       -0.24760000      -2.83820000       0.80320000
C       -0.49140000      -4.27350000       0.70820000
C       -0.72320000      -5.44880000       0.61070000
H       -0.41230000       1.33060000      -1.27320000
H        0.82140000      -0.41970000      -0.27550000
H        0.32620000       0.34610000       1.24950000
H       -2.05060000       0.10090000       0.65820000
H       -2.64210000      -2.44960000      -1.59070000
H       -0.87790000      -2.45630000      -1.85420000
H       -2.32890000      -2.29560000       0.83410000
H        0.66510000      -2.59090000       0.24810000
H       -0.05480000      -2.56730000       1.84940000
H       -0.91290000      -6.49060000       0.53270000
