20
Properties=species:S:1:pos:R:3 gdb_69665=T pbc="F F F"
C        0.15100000       1.59660000       0.34340000
C        0.11460000       0.13600000       0.01610000
N       -0.93460000      -0.75770000       0.54310000
C        0.51710000      -1.07200000       0.82200000
C        0.93070000      -1.77910000      -0.43830000
C        0.93710000      -2.89100000      -1.16280000
C        0.69840000      -2.50960000      -2.62740000
C        0.04850000      -1.08380000      -2.53350000
C        0.71070000      -0.53180000      -1.26390000
H        1.12300000       2.03250000       0.08910000
H       -0.61670000       2.14480000      -0.21580000
H       -0.02660000       1.76920000       1.41100000
H       -1.29510000      -0.31290000       1.39020000
H        0.86660000      -1.15640000       1.84350000
H        1.00920000      -3.91660000      -0.82100000
H        1.63320000      -2.48250000      -3.20670000
H        0.04420000      -3.22920000      -3.13170000
H        0.20650000      -0.48450000      -3.43490000
H       -1.02800000      -1.19450000      -2.36950000
H        1.66540000      -0.03040000      -1.48020000
