14
Properties=species:S:1:pos:R:3 gdb_127354=T pbc="F F F"
C       -0.01460000       1.48880000       0.00140000
N       -0.00770000       0.04170000       0.03650000
C       -0.03910000      -0.83060000      -1.06160000
N       -0.02320000      -2.10120000      -0.75460000
C        0.02130000      -2.09210000       0.62190000
C        0.03120000      -0.79860000       1.11040000
N        0.07450000      -0.92020000       2.44780000
N        0.09100000      -2.27630000       2.76460000
N        0.05870000      -2.96450000       1.66610000
H        0.89070000       1.89920000       0.46040000
H       -0.05050000       1.81210000      -1.04050000
H       -0.89090000       1.89200000       0.51950000
H       -0.07330000      -0.42370000      -2.06270000
H        0.09620000      -0.24890000       3.19540000
