20
Properties=species:S:1:pos:R:3 gdb_71291=T pbc="F F F"
C       -0.00990000       1.48730000       0.04560000
C        0.04100000      -0.02660000      -0.01340000
C        0.30080000      -0.65010000      -1.41670000
C       -1.03670000      -1.35840000      -1.25570000
C       -1.20990000      -2.06010000       0.03530000
C       -0.14180000      -2.70740000       0.89210000
O        1.09000000      -2.01430000       0.90520000
C        0.90990000      -0.62040000       1.08780000
N       -1.38220000      -0.59300000       0.02020000
H        0.97720000       1.91990000      -0.15160000
H       -0.71380000       1.87300000      -0.69720000
H       -0.34790000       1.82620000       1.03090000
H        0.26870000       0.10650000      -2.20410000
H        1.18940000      -1.27120000      -1.54270000
H       -1.77180000      -1.47080000      -2.04770000
H       -2.17310000      -2.55820000       0.14320000
H       -0.53960000      -2.78860000       1.91920000
H        0.07400000      -3.72120000       0.53810000
H        1.91220000      -0.18050000       1.07130000
H        0.45370000      -0.40870000       2.07020000
