24
Properties=species:S:1:pos:R:3 gdb_100831=T pbc="F F F"
C        0.15940000       1.56350000       0.11100000
C       -0.04730000       0.05450000      -0.06550000
C        0.69470000      -0.55880000      -1.27050000
C        2.20540000      -0.29030000      -1.20230000
C        0.41410000      -2.07840000      -1.40380000
C       -1.07590000      -2.44890000      -1.42350000
N        1.06080000      -2.61230000      -2.60340000
C        1.94550000      -3.64410000      -2.59400000
O        2.34630000      -4.22190000      -1.60520000
H        1.19380000       1.81320000       0.36220000
H       -0.10240000       2.10840000      -0.80350000
H       -0.47490000       1.94660000       0.91640000
H        0.26810000      -0.46670000       0.84930000
H       -1.12100000      -0.13140000      -0.16840000
H        0.30060000      -0.07550000      -2.18020000
H        2.73070000      -0.76840000      -2.03210000
H        2.42310000       0.77970000      -1.24420000
H        2.62890000      -0.68370000      -0.27080000
H        0.89820000      -2.60120000      -0.57270000
H       -1.18730000      -3.52080000      -1.60710000
H       -1.56380000      -2.21960000      -0.47370000
H       -1.61010000      -1.91000000      -2.21580000
H        0.78020000      -2.24290000      -3.49940000
H        2.27700000      -3.90590000      -3.61950000
