17
Properties=species:S:1:pos:R:3 gdb_28220=T pbc="F F F"
C        0.10650000       1.46670000       0.05490000
C        0.02810000      -0.01900000      -0.03480000
N        0.02680000      -0.73260000      -1.14210000
C       -0.04280000      -2.04290000      -0.72260000
C       -0.08920000      -2.10420000       0.62430000
N       -0.04710000      -0.82840000       1.10300000
O       -0.19380000      -3.30720000       1.22310000
C       -0.09510000      -4.24560000       0.08710000
C       -0.14990000      -3.43930000      -1.26340000
H        1.00710000       1.80530000       0.58230000
H        0.13400000       1.86860000      -0.95900000
H       -0.75940000       1.89780000       0.57250000
H       -0.05240000      -0.52580000       2.06190000
H        0.85540000      -4.77420000       0.19930000
H       -0.91450000      -4.95790000       0.19740000
H       -1.08550000      -3.62590000      -1.80510000
H        0.67120000      -3.73940000      -1.92310000
