20
Properties=species:S:1:pos:R:3 gdb_17286=T pbc="F F F"
C       -0.00990000       1.51890000      -0.01450000
C       -0.00130000       0.00680000       0.00620000
C       -1.37560000      -0.73970000       0.00090000
C       -0.95330000      -1.52510000       1.28590000
C        0.42220000      -0.79500000       1.27710000
C        1.60040000      -1.40970000       0.48980000
C        1.15410000      -2.14150000      -0.74470000
C        1.17670000      -0.64070000      -0.77030000
H        0.98480000       1.92220000       0.20850000
H       -0.30710000       1.89940000      -1.00020000
H       -0.71060000       1.92420000       0.72390000
H       -2.22480000      -0.06950000       0.16060000
H       -1.58490000      -1.34420000      -0.88560000
H       -1.56220000      -1.28120000       2.15980000
H       -0.91490000      -2.61370000       1.19440000
H        0.71570000      -0.26820000       2.18660000
H        2.59470000      -1.55810000       0.89510000
H        1.95740000      -2.61320000      -1.30290000
H        0.22510000      -2.70260000      -0.77640000
H        1.79220000      -0.10000000      -1.48170000
