18
Properties=species:S:1:pos:R:3 gdb_76668=T pbc="F F F"
C       -0.02350000       1.45550000       0.34200000
C        0.10350000      -0.03140000       0.10430000
C        1.42910000      -0.63620000      -0.33550000
O        2.54720000       0.18900000      -0.46930000
C        0.89680000      -0.91040000       1.04210000
O        1.66780000      -0.30050000       2.05880000
C        1.04160000      -0.16360000       3.26720000
N        1.90090000       0.39780000       4.16560000
O       -0.08380000      -0.52790000       3.49710000
H        0.94780000       1.90070000       0.56550000
H       -0.41440000       1.95210000      -0.55140000
H       -0.70460000       1.66260000       1.17340000
H       -0.78320000      -0.51190000      -0.30090000
H        1.41380000      -1.44730000      -1.05970000
H        2.99890000       0.19950000       0.38190000
H        0.52270000      -1.88920000       1.31870000
H        2.73350000       0.85440000       3.83550000
H        1.49810000       0.71150000       5.03140000
