20
Properties=species:S:1:pos:R:3 gdb_33130=T pbc="F F F"
C       -0.02980000       1.52900000       0.00750000
C       -0.04360000       0.00730000      -0.08530000
N        0.80230000      -0.45700000      -1.17500000
C        0.85740000      -1.83040000      -1.40770000
C        0.41950000      -2.85350000      -0.61640000
O        0.73840000      -4.05880000      -1.18650000
C        1.36840000      -3.78390000      -2.35240000
C        1.48120000      -2.44510000      -2.55690000
C        2.11920000      -1.73170000      -3.70600000
H        0.98940000       1.90040000       0.14820000
H       -0.43480000       1.98410000      -0.90410000
H       -0.64330000       1.86950000       0.84620000
H        0.34750000      -0.42430000       0.84500000
H       -1.08080000      -0.35850000      -0.18630000
H        0.66300000       0.07450000      -2.02510000
H       -0.08900000      -2.90030000       0.33010000
H        1.68440000      -4.63660000      -2.93210000
H        1.39500000      -1.12830000      -4.26920000
H        2.90740000      -1.04980000      -3.36540000
H        2.56780000      -2.43900000      -4.40880000
