20
Properties=species:S:1:pos:R:3 gdb_62113=T pbc="F F F"
C       -0.04350000       1.79530000       0.19700000
C       -0.03920000       0.26770000       0.05470000
C        0.68830000      -0.41480000       1.21300000
O        2.04320000       0.03910000       1.21950000
C        2.90150000      -0.63650000       2.00570000
N        4.09160000      -0.23570000       2.13280000
C       -1.44990000      -0.27500000      -0.03490000
C       -2.08610000      -0.59650000      -1.31720000
O       -1.59190000      -1.63220000      -0.46500000
H        0.97710000       2.17270000       0.28480000
H       -0.51720000       2.26750000      -0.66890000
H       -0.59590000       2.10460000       1.09220000
H        0.48900000      -0.01020000      -0.86540000
H        0.20910000      -0.16200000       2.17050000
H        0.65190000      -1.50340000       1.08380000
H        2.45800000      -1.52460000       2.47780000
H        4.60600000      -0.86790000       2.74260000
H       -2.10360000      -0.00860000       0.79950000
H       -3.16960000      -0.54850000      -1.41460000
H       -1.52920000      -0.44790000      -2.24150000
