20
Properties=species:S:1:pos:R:3 gdb_59248=T pbc="F F F"
C       -1.44910000       0.56750000       0.40690000
C       -0.07710000       0.08380000      -0.06620000
O        0.64640000       1.13120000      -0.72060000
C        0.72350000      -0.48630000       1.08850000
C        0.88840000      -1.95060000       1.37830000
C        0.61240000      -2.91820000       0.28020000
C        1.45130000      -2.71210000      -0.73630000
C        2.40350000      -1.58150000      -0.41570000
N        2.04190000      -1.12140000       0.94890000
H       -1.34730000       1.32330000       1.19540000
H       -1.99640000       1.01570000      -0.42630000
H       -2.03990000      -0.26080000       0.81130000
H       -0.21330000      -0.67380000      -0.84070000
H        0.88490000       1.78540000      -0.05400000
H        0.70080000       0.16580000       1.96540000
H        0.86870000      -2.29430000       2.41050000
H       -0.16480000      -3.67060000       0.33210000
H        1.45820000      -3.24650000      -1.67950000
H        3.44860000      -1.91810000      -0.40850000
H        2.33560000      -0.74760000      -1.12370000
