18
Properties=species:S:1:pos:R:3 gdb_82723=T pbc="F F F"
C       -0.22480000       1.57740000       0.00840000
C        0.02490000       0.07410000      -0.04010000
C        0.88420000      -0.48990000      -1.17970000
C        2.38840000      -0.06990000      -1.02030000
C        2.62180000      -1.37430000      -0.24650000
C        1.28930000      -1.89340000      -0.64600000
N        1.55670000      -1.62250000       0.77160000
C        0.81930000      -0.44930000       1.16890000
O        0.85970000       0.02290000       2.26930000
H        0.70860000       2.14190000      -0.07830000
H       -0.88880000       1.89370000      -0.80120000
H       -0.68410000       1.84690000       0.96320000
H       -0.93990000      -0.45590000      -0.04210000
H        0.45840000      -0.40690000      -2.17840000
H        2.91290000      -0.10140000      -1.97810000
H        2.61240000       0.87710000      -0.52000000
H        3.56360000      -1.88450000      -0.08530000
H        0.95200000      -2.87750000      -0.94610000
