19
Properties=species:S:1:pos:R:3 gdb_94098=T pbc="F F F"
C        0.15810000       1.59290000      -0.12390000
C       -0.04210000       0.08860000       0.06110000
O        0.52020000      -0.61900000      -1.05280000
C        1.42480000      -1.61740000      -0.60480000
C        1.49510000      -1.45710000       0.89480000
C        2.36980000      -2.32380000       1.75080000
C        1.81440000      -3.74090000       1.85330000
O        2.41500000      -4.73590000       1.54760000
C        0.65110000      -0.49660000       1.26210000
H        1.22380000       1.83960000      -0.13670000
H       -0.28570000       1.91500000      -1.07000000
H       -0.32240000       2.14900000       0.68800000
H       -1.12580000      -0.11780000       0.09840000
H        1.06730000      -2.61950000      -0.89650000
H        2.40680000      -1.47950000      -1.08430000
H        3.39050000      -2.39090000       1.36000000
H        2.41040000      -1.91530000       2.76870000
H        0.77130000      -3.78590000       2.24180000
H        0.46890000      -0.15040000       2.27260000
