20
Properties=species:S:1:pos:R:3 gdb_82894=T pbc="F F F"
C       -0.00610000       1.47680000      -0.16430000
N        0.01260000       0.02450000      -0.02300000
C       -1.22170000      -0.52890000       0.63810000
C       -0.94090000      -2.03140000       0.48030000
C        0.28240000      -1.96170000       1.41140000
O       -0.34730000      -1.61580000       2.68220000
C       -0.55750000      -0.33220000       2.09050000
C        0.70910000      -0.43680000       1.20830000
C        2.10530000      -0.00180000       1.54660000
H        0.97610000       1.82670000      -0.49710000
H       -0.73290000       1.74760000      -0.93650000
H       -0.26800000       2.03040000       0.75540000
H       -2.18230000      -0.11170000       0.34030000
H       -1.70050000      -2.69520000       0.89720000
H       -0.72000000      -2.28180000      -0.55780000
H        0.99040000      -2.78660000       1.47880000
H       -0.86450000       0.45480000       2.77740000
H        2.39560000      -0.41370000       2.51790000
H        2.81700000      -0.36080000       0.79480000
H        2.19050000       1.08780000       1.60160000
