15
Properties=species:S:1:pos:R:3 gdb_24206=T pbc="F F F"
C       -0.04270000       1.59880000      -0.04880000
C        1.49470000       1.30780000      -0.01850000
O        1.18200000       0.18640000       0.88860000
C       -0.02290000       0.03730000       0.03430000
C        0.61300000      -0.34030000      -1.30690000
C        1.64480000       0.53900000      -1.32220000
O        2.42030000       0.41940000      -2.40870000
C        1.84190000      -0.60060000      -3.13560000
C        0.73310000      -1.10210000      -2.50560000
H       -0.39060000       2.06160000       0.87780000
H       -0.47140000       2.07280000      -0.93430000
H        2.24960000       2.00150000       0.34320000
H       -0.81770000      -0.55500000       0.48160000
H        2.34050000      -0.84340000      -4.05890000
H        0.11490000      -1.90540000      -2.87550000
