14
Properties=species:S:1:pos:R:3 gdb_123602=T pbc="F F F"
C       -0.02590000       1.50620000      -0.07960000
C        1.53950000       1.36830000      -0.01390000
C        1.16770000       0.15520000       0.91550000
N       -0.08150000      -0.03500000       0.02510000
C        0.62420000      -0.31610000      -1.20300000
N        0.58640000      -1.10020000      -2.22230000
O        1.68570000      -0.68990000      -2.98370000
N        2.38490000       0.37690000      -2.37400000
C        1.72200000       0.58860000      -1.29150000
H       -0.46230000       1.94450000       0.81970000
H       -0.48280000       1.91790000      -0.98080000
H        2.21360000       2.17220000       0.26890000
H        1.83580000      -0.70660000       0.95230000
H        0.85400000       0.45450000       1.91720000
