18
Properties=species:S:1:pos:R:3 gdb_29131=T pbc="F F F"
C       -0.11570000       1.53570000      -0.01570000
C       -0.02750000       0.03490000      -0.01570000
C        0.05440000      -0.67880000      -1.15170000
O        0.13490000      -2.03060000      -1.18360000
C        0.13920000      -2.79380000      -0.02180000
N        0.21650000      -4.06230000      -0.08780000
C        0.05160000      -2.06450000       1.24080000
C        0.05540000      -2.88310000       2.49640000
C       -0.02710000      -0.71450000       1.21900000
H        0.72210000       1.98410000       0.53130000
H       -0.10330000       1.93580000      -1.03310000
H       -1.03640000       1.88080000       0.46940000
H        0.06490000      -0.25940000      -2.15060000
H        0.26880000      -4.36880000      -1.05940000
H       -0.77890000      -3.59220000       2.49750000
H        0.96500000      -3.48930000       2.55940000
H       -0.01360000      -2.24530000       3.38120000
H       -0.09230000      -0.16740000       2.15610000
