22
Properties=species:S:1:pos:R:3 gdb_16905=T pbc="F F F"
C        0.01410000       1.57490000       0.02380000
C        0.01440000       0.04430000      -0.01560000
C        0.67690000      -0.50080000      -1.28910000
C        0.47790000      -2.01850000      -1.41540000
C        0.84910000      -2.78140000      -0.15500000
C        2.18380000      -2.59150000       0.51630000
C        0.93150000      -2.05250000       1.17220000
C        0.69290000      -0.54320000       1.23710000
H        1.03760000       1.96780000      -0.00500000
H       -0.52670000       1.99540000      -0.83080000
H       -0.45830000       1.95140000       0.93780000
H       -1.03130000      -0.29850000      -0.02180000
H        0.25740000      -0.00650000      -2.17330000
H        1.74680000      -0.24870000      -1.27930000
H       -0.58210000      -2.20740000      -1.63370000
H        1.04150000      -2.40740000      -2.27310000
H        0.45000000      -3.79160000      -0.11740000
H        2.66910000      -3.45840000       0.95200000
H        2.87450000      -1.86740000       0.09370000
H        0.58460000      -2.60550000       2.03970000
H        1.64800000      -0.02250000       1.39420000
H        0.07930000      -0.31060000       2.11480000
