17
Properties=species:S:1:pos:R:3 gdb_35240=T pbc="F F F"
N       -0.20180000      -1.13570000       0.00980000
C       -0.11660000       0.01670000       0.04740000
C        0.00740000       1.45410000       0.04270000
N        0.64370000       2.07610000       1.22580000
C        1.34370000       2.12210000      -0.05320000
C        2.67740000       1.38590000      -0.17840000
C        3.41870000       2.23060000      -1.22720000
O        2.90010000       3.55070000      -1.07630000
C        1.50950000       3.41160000      -0.87070000
H       -0.83570000       1.96360000      -0.41890000
H        0.17980000       2.95930000       1.42920000
H        3.18890000       1.41550000       0.78680000
H        2.55980000       0.34030000      -0.47140000
H        4.49850000       2.27760000      -1.07490000
H        3.22420000       1.85640000      -2.24490000
H        0.97480000       3.32830000      -1.83180000
H        1.14510000       4.30210000      -0.34780000
