19
Properties=species:S:1:pos:R:3 gdb_107490=T pbc="F F F"
C        0.06590000       1.41290000       0.22920000
O       -0.03980000       0.00980000       0.01870000
C        0.59000000      -0.45280000      -1.10880000
C        1.52170000      -1.63800000      -1.06550000
C        1.99730000      -0.33640000      -1.66170000
O        1.52190000      -0.18910000      -3.00600000
C        0.15730000      -0.24010000      -2.54660000
C       -0.92900000      -0.85880000      -3.35810000
C       -0.89420000       0.64680000      -3.12200000
H        1.11430000       1.71540000       0.35030000
H       -0.37010000       1.98810000      -0.59560000
H       -0.48140000       1.63160000       1.14850000
H        1.90660000      -1.84250000      -0.07070000
H        1.36340000      -2.50530000      -1.70040000
H        2.88770000       0.20850000      -1.37490000
H       -0.66230000      -1.21290000      -4.34770000
H       -1.68590000      -1.44590000      -2.84820000
H       -1.63370000       1.07540000      -2.45400000
H       -0.60270000       1.28070000      -3.95240000
