13
Properties=species:S:1:pos:R:3 gdb_131240=T pbc="F F F"
O        0.28140000       1.32180000       0.00880000
C        0.05100000      -0.00370000       0.00930000
C       -1.08830000      -0.74740000       0.07410000
N       -0.65750000      -2.08620000       0.03170000
C       -1.01640000      -3.41240000       0.03770000
N        0.06050000      -4.16270000      -0.04020000
N        1.18260000      -3.35180000      -0.10180000
C        0.70700000      -2.13160000      -0.05630000
N        1.15700000      -0.83070000      -0.06890000
H       -0.55680000       1.79210000       0.06450000
H       -2.11900000      -0.45280000       0.14540000
H       -2.03250000      -3.76360000       0.09880000
H        2.11180000      -0.52710000      -0.13520000
