15
Properties=species:S:1:pos:R:3 gdb_12428=T pbc="F F F"
O       -0.00630000      -0.06210000      -0.44250000
C       -0.00500000       1.11870000      -0.13510000
N       -1.21370000       1.79000000      -0.02570000
C       -1.50070000       3.14630000       0.13790000
C       -0.77170000       4.05630000       0.78370000
C        0.49910000       3.77470000       1.54860000
C        1.50640000       2.95140000       0.78570000
C        1.26860000       1.84430000       0.07770000
H       -1.98160000       1.19000000      -0.29330000
H       -2.43840000       3.43590000      -0.32670000
H       -1.13490000       5.07770000       0.77540000
H        0.96150000       4.72080000       1.84220000
H        0.26010000       3.25950000       2.49300000
H        2.54010000       3.28530000       0.84990000
H        2.10030000       1.30970000      -0.37000000
