14
Properties=species:S:1:pos:R:3 gdb_3166=T pbc="F F F"
C        0.07620000       1.54950000       0.03070000
C        1.30070000       0.65340000      -0.09180000
C       -0.06320000       0.06300000       0.05180000
C       -0.56470000      -0.78310000       1.22790000
N       -1.39300000      -1.82920000       0.60160000
C       -1.34870000      -1.59840000      -0.64340000
O       -0.63020000      -0.55200000      -1.11680000
H       -0.08720000       2.08850000       0.95860000
H       -0.25120000       2.06840000      -0.86320000
H        1.77260000       0.58740000      -1.06570000
H        1.97930000       0.57630000       0.75190000
H        0.25310000      -1.24430000       1.79350000
H       -1.16870000      -0.20380000       1.93580000
H       -1.84980000      -2.17840000      -1.41020000
