27
Properties=species:S:1:pos:R:3 gdb_123252=T pbc="F F F"
C       -0.00200000       1.58000000       0.04600000
C        0.01910000       0.04920000       0.02790000
C        0.73910000      -0.55150000       1.23930000
C        0.76020000      -2.07370000       1.22120000
O        1.43970000      -2.53450000       2.36860000
C        1.51570000      -3.94100000       2.44850000
C        2.26490000      -4.32260000       3.71770000
C        2.40090000      -5.83790000       3.89700000
C        3.15460000      -6.22170000       5.17330000
H        1.01430000       1.98920000       0.04880000
H       -0.52140000       1.98300000      -0.82900000
H       -0.51110000       1.95760000       0.93960000
H       -1.01080000      -0.33010000      -0.00990000
H        0.50350000      -0.29870000      -0.89420000
H        1.77330000      -0.18790000       1.28060000
H        0.25610000      -0.21950000       2.16670000
H       -0.27020000      -2.47150000       1.20010000
H        1.26000000      -2.43970000       0.30660000
H        0.50210000      -4.38030000       2.45450000
H        2.03220000      -4.34830000       1.56090000
H        3.25760000      -3.85630000       3.69130000
H        1.74040000      -3.88770000       4.57740000
H        1.40250000      -6.29500000       3.91070000
H        2.91660000      -6.26380000       3.02600000
H        3.23750000      -7.30800000       5.27720000
H        4.16910000      -5.80800000       5.17250000
H        2.64400000      -5.83910000       6.06380000
