14
Properties=species:S:1:pos:R:3 gdb_29504=T pbc="F F F"
O        0.09860000       1.42290000       0.09740000
C        0.07360000       0.05710000       0.03960000
C        0.06590000      -0.77390000      -1.06690000
N        0.03800000      -2.10750000      -0.65290000
C        0.02820000      -2.11250000       0.71310000
C        0.04950000      -0.80120000       1.16610000
N        0.03750000      -0.92230000       2.54280000
C        0.01050000      -2.27330000       2.80770000
N        0.00400000      -3.02850000       1.72370000
H        0.11180000       1.76970000      -0.79980000
H        0.07810000      -0.51970000      -2.11460000
H        0.02750000      -2.90740000      -1.25830000
H        0.04650000      -0.18430000       3.22430000
H       -0.00360000      -2.64610000       3.82080000
