17
Properties=species:S:1:pos:R:3 gdb_9785=T pbc="F F F"
C        0.07830000       1.45320000      -0.19760000
C        0.02060000      -0.06730000       0.04610000
C        0.70980000      -0.41660000       1.29600000
N        1.26530000      -0.68650000       2.27250000
C       -1.41590000      -0.59840000       0.05710000
O       -2.23690000      -0.02710000       1.03470000
C       -2.04500000      -1.01130000      -1.25080000
C       -1.66850000      -2.04760000      -0.20720000
H        1.11180000       1.80370000      -0.24080000
H       -0.41180000       1.69460000      -1.14530000
H       -0.42370000       1.99190000       0.61040000
H        0.55620000      -0.57380000      -0.76580000
H       -2.49420000       0.85370000       0.74120000
H       -3.09980000      -0.79280000      -1.37370000
H       -1.45830000      -0.95280000      -2.16180000
H       -0.82120000      -2.69610000      -0.39990000
H       -2.47360000      -2.50180000       0.35740000
