17
Properties=species:S:1:pos:R:3 gdb_57771=T pbc="F F F"
C       -0.00760000       1.57480000      -0.03630000
C        0.02030000       0.04370000       0.08060000
O        0.73270000      -0.38480000       1.23660000
C       -1.33380000      -0.52060000       0.03150000
C       -2.44900000      -0.97720000       0.01120000
C       -3.81030000      -1.52510000       0.00560000
O       -3.86080000      -2.92130000      -0.08950000
C       -4.50910000      -1.05110000       1.28580000
O       -4.96210000      -1.83820000       2.07550000
H        1.01490000       1.95800000       0.00750000
H       -0.46780000       1.88710000      -0.97820000
H       -0.58290000       2.01220000       0.78620000
H        0.59620000      -0.36240000      -0.75980000
H        0.19590000      -0.16880000       2.00730000
H       -4.36190000      -1.07500000      -0.83890000
H       -4.22460000      -3.22430000       0.75820000
H       -4.55210000       0.04420000       1.43870000
