16
Properties=species:S:1:pos:R:3 gdb_12262=T pbc="F F F"
C        0.43160000       1.42630000      -0.20740000
C        0.06770000      -0.02580000       0.04150000
O        0.84360000      -0.97780000      -0.73800000
C        1.35030000      -1.68310000       0.42690000
C        2.87430000      -1.66410000       0.45960000
O        3.39730000      -2.27640000      -0.70020000
C        0.59220000      -0.69490000       1.32210000
O        0.48780000      -0.50180000       2.49460000
H        1.49700000       1.60180000      -0.03520000
H        0.19580000       1.70370000      -1.23890000
H       -0.14270000       2.07080000       0.46500000
H       -1.00910000      -0.19030000      -0.10660000
H        0.97880000      -2.71560000       0.46280000
H        3.22940000      -0.62710000       0.56610000
H        3.23340000      -2.23340000       1.32270000
H        2.99550000      -1.82270000      -1.45110000
