17
Properties=species:S:1:pos:R:3 gdb_87472=T pbc="F F F"
C        0.00920000       1.52820000      -0.10140000
C       -0.02200000       0.03320000       0.07210000
O        1.25800000      -0.65870000      -0.04470000
C        0.60560000      -0.65720000       1.19030000
C        1.15970000      -0.21190000       2.56450000
C       -0.18930000      -0.78980000       3.12600000
C        0.22230000      -1.87390000       2.06540000
C        1.64030000      -1.68250000       2.65660000
O        2.57450000      -2.31870000       3.02380000
H        0.83530000       1.96940000       0.46130000
H        0.13270000       1.78770000      -1.15780000
H       -0.92990000       1.97300000       0.24530000
H       -0.82800000      -0.48360000      -0.45100000
H        1.66470000       0.71070000       2.83700000
H       -0.19030000      -1.10250000       4.17000000
H       -1.07680000      -0.21180000       2.86410000
H       -0.30800000      -2.77930000       1.78330000
