19
Properties=species:S:1:pos:R:3 gdb_91871=T pbc="F F F"
C       -0.04580000       1.52030000       0.06870000
C       -0.01360000       0.00810000      -0.07630000
C        0.83600000      -0.48330000      -1.24530000
C        0.94700000      -2.00440000      -1.23090000
C        2.13400000      -2.64450000      -0.57590000
C        0.78010000      -2.67570000       0.11670000
C        0.60850000      -1.85060000       1.35160000
O        0.61370000      -2.31070000       2.46120000
O        0.49240000      -0.50550000       1.18080000
H        0.96560000       1.91340000       0.20980000
H       -0.47560000       1.97750000      -0.82770000
H       -0.64970000       1.80890000       0.93240000
H       -1.03790000      -0.37170000      -0.19600000
H        0.37900000      -0.14500000      -2.18060000
H        1.82610000      -0.01610000      -1.18820000
H        0.51570000      -2.52520000      -2.07910000
H        2.50600000      -3.58720000      -0.96000000
H        2.89800000      -1.99330000      -0.16390000
H        0.29490000      -3.64170000       0.18130000
