15
Properties=species:S:1:pos:R:3 gdb_10159=T pbc="F F F"
O       -0.13500000       1.44190000       0.13310000
C        0.02600000       0.04260000      -0.00660000
C       -1.37090000      -0.56770000       0.06060000
C       -1.36160000      -2.11580000      -0.02940000
C       -2.80840000      -2.61910000       0.10450000
O       -3.27940000      -2.96180000       1.15180000
C       -0.77710000      -2.58990000      -1.28370000
N       -0.34460000      -2.97080000      -2.28570000
H        0.72370000       1.85940000       0.01870000
H        0.50140000      -0.21900000      -0.96350000
H        0.65120000      -0.37590000       0.79930000
H       -1.84030000      -0.28900000       1.00870000
H       -1.98150000      -0.14970000      -0.74660000
H       -0.79680000      -2.52910000       0.81300000
H       -3.39600000      -2.59930000      -0.83740000
