16
Properties=species:S:1:pos:R:3 gdb_67132=T pbc="F F F"
O       -0.16180000       1.41750000      -0.20980000
C       -0.03380000       0.06110000      -0.04850000
C       -1.08140000      -0.95190000      -0.34590000
C       -0.87910000      -1.75950000      -1.64910000
C        0.42790000      -1.25990000      -2.35910000
N        1.47210000      -1.52090000      -1.34770000
C        1.16800000      -0.88900000      -0.30560000
O        1.08650000      -1.49270000       0.95930000
C       -0.25690000      -0.92950000       1.02720000
H        0.48390000       1.85920000       0.35450000
H       -2.10070000      -0.62170000      -0.14820000
H       -0.78500000      -2.83280000      -1.45950000
H       -1.75080000      -1.61530000      -2.29820000
H        0.64620000      -1.83380000      -3.26120000
H        0.31730000      -0.20330000      -2.63480000
H       -0.73200000      -0.91490000       1.99940000
