13
Properties=species:S:1:pos:R:3 gdb_123703=T pbc="F F F"
C        0.00250000       1.47710000       0.09980000
C        1.29720000       0.73510000       0.03240000
O        1.99930000       0.43610000       1.24450000
C        1.15060000      -0.38660000       1.91120000
C        0.01940000      -0.73910000       1.25280000
O       -0.67800000      -1.56900000       1.99780000
N        0.14460000      -1.71640000       3.24370000
N        1.17440000      -0.99500000       3.11440000
C       -0.04380000      -0.04470000      -0.04040000
H       -0.31350000       1.91500000       1.03960000
H       -0.25840000       2.04810000      -0.78440000
H        1.97410000       0.85110000      -0.80330000
H       -0.42400000      -0.51120000      -0.94010000
