19
Properties=species:S:1:pos:R:3 gdb_88142=T pbc="F F F"
O       -0.38590000       1.46100000      -0.12080000
C       -0.18230000       0.08210000      -0.12690000
C       -0.24860000      -0.69760000       1.14460000
C       -1.40690000      -0.77620000       0.16850000
C       -2.78240000      -0.17320000       0.39140000
C       -3.60460000      -0.70140000      -0.80990000
C       -3.03670000      -2.10610000      -1.08050000
C       -1.56440000      -2.00730000      -0.67450000
O       -0.67620000      -2.76850000      -0.97970000
H        0.35620000       1.87200000       0.33440000
H        0.47240000      -0.29220000      -0.91290000
H        0.37130000      -1.58440000       1.23160000
H       -0.42870000      -0.14360000       2.06040000
H       -3.21090000      -0.53790000       1.33320000
H       -2.75290000       0.91710000       0.43750000
H       -4.67920000      -0.70440000      -0.61300000
H       -3.43270000      -0.05990000      -1.68120000
H       -3.50480000      -2.85260000      -0.42390000
H       -3.14320000      -2.46740000      -2.10560000
