18
Properties=species:S:1:pos:R:3 gdb_15351=T pbc="F F F"
C        0.40320000       1.02770000       0.47080000
O       -0.33200000       0.17500000      -0.38440000
C        0.45550000      -0.43030000      -1.36000000
C        1.23890000      -1.67480000      -1.01090000
C       -0.00430000      -1.76100000      -1.87340000
C       -1.27440000      -2.39000000      -1.31690000
C       -1.26720000      -3.84720000      -1.40040000
C       -1.24860000      -5.04630000      -1.48230000
H        1.19010000       0.48120000       1.00960000
H        0.87370000       1.85080000      -0.08780000
H       -0.30260000       1.44730000       1.19130000
H        0.89700000       0.26980000      -2.07160000
H        2.21050000      -1.83690000      -1.46420000
H        1.14680000      -2.03560000       0.00850000
H        0.15440000      -1.94470000      -2.93170000
H       -1.40560000      -2.07190000      -0.27760000
H       -2.14400000      -1.99840000      -1.86080000
H       -1.23960000      -6.10590000      -1.54660000
