18
Properties=species:S:1:pos:R:3 gdb_15992=T pbc="F F F"
C        0.17370000       1.52580000      -0.21490000
O       -0.32800000       0.23340000      -0.47880000
C        0.57640000      -0.59210000      -1.15330000
C        1.70250000      -1.32600000      -0.35250000
C        1.36250000      -2.63110000      -1.13520000
C        0.03940000      -1.96940000      -1.52690000
C       -1.32870000      -2.45080000      -1.34820000
O       -0.75470000      -2.26530000      -2.65430000
H        1.05090000       1.49950000       0.44860000
H        0.45770000       2.04610000      -1.14270000
H       -0.62240000       2.08890000       0.27760000
H        0.99040000      -0.08060000      -2.03750000
H        2.71900000      -0.94040000      -0.44100000
H        1.42810000      -1.40040000       0.70260000
H        2.01110000      -2.77850000      -2.00330000
H        1.31150000      -3.56260000      -0.56850000
H       -1.50120000      -3.48690000      -1.05910000
H       -2.11020000      -1.74360000      -1.07990000
