20
Properties=species:S:1:pos:R:3 gdb_89807=T pbc="F F F"
O       -0.00120000       1.41050000      -0.09070000
C        0.01920000      -0.00370000      -0.10360000
C        0.78100000      -0.62950000       1.10280000
C        0.06410000      -1.94200000       1.41350000
C        0.73340000      -3.28170000       1.22040000
C        0.39920000      -2.78870000       2.60910000
C       -1.34350000      -1.75860000       0.91920000
N       -1.94480000      -0.46070000       1.32280000
C       -1.36750000      -0.62860000      -0.03410000
H       -0.54550000       1.65700000       0.66780000
H        0.49720000      -0.28320000      -1.04870000
H        1.84540000      -0.76250000       0.89330000
H        0.69490000       0.05810000       1.94990000
H        0.14590000      -4.09930000       0.81360000
H        1.77450000      -3.29000000       0.91460000
H        1.21550000      -2.46510000       3.24670000
H       -0.41360000      -3.27160000       3.14180000
H       -1.99450000      -2.62090000       0.80950000
H       -2.95740000      -0.53470000       1.26250000
H       -2.02350000      -0.59400000      -0.89750000
