15
Properties=species:S:1:pos:R:3 gdb_77494=T pbc="F F F"
O        0.04170000       1.46460000       0.21280000
C        0.00100000       0.06870000       0.13900000
C       -0.06340000      -0.66160000       1.52850000
O        0.88500000      -0.68810000       2.51370000
C       -1.54370000      -0.14200000       1.64380000
C       -1.40840000      -0.62520000       0.13800000
O       -2.29820000      -0.51440000      -0.89800000
C       -0.67760000      -1.82540000       0.74400000
O       -0.62560000      -3.01960000       0.70520000
H       -0.28050000       1.81550000      -0.62450000
H        0.72430000      -0.32660000      -0.58450000
H        1.20610000      -1.59380000       2.59730000
H       -2.21790000      -0.69920000       2.29530000
H       -1.62660000       0.93610000       1.75200000
H       -2.98090000      -1.18740000      -0.79980000
