20
Properties=species:S:1:pos:R:3 gdb_71282=T pbc="F F F"
C       -0.12450000       1.48420000      -0.01340000
C        0.01680000      -0.03120000      -0.02120000
C       -1.28030000      -0.80720000       0.43840000
C       -0.47540000      -1.43540000       1.58560000
C        0.73400000      -0.62030000       1.23110000
N        0.76570000      -2.05960000       1.15470000
C        0.92170000      -2.74300000      -0.14030000
C        1.03220000      -1.83690000      -1.33890000
C        0.62530000      -0.57020000      -1.28810000
H        0.84840000       1.96870000      -0.15550000
H       -0.78660000       1.82160000      -0.81890000
H       -0.54000000       1.84000000       0.93520000
H       -2.04900000      -0.12240000       0.80850000
H       -1.73190000      -1.48910000      -0.28840000
H       -0.86910000      -1.71980000       2.55560000
H        1.45850000      -0.09430000       1.84540000
H        1.82550000      -3.36310000      -0.07510000
H        0.08690000      -3.44680000      -0.26000000
H        1.48950000      -2.25290000      -2.23230000
H        0.72390000       0.09080000      -2.14550000
