20
Properties=species:S:1:pos:R:3 gdb_62883=T pbc="F F F"
C       -0.01730000       1.56930000       0.02140000
C       -0.06350000       0.04280000      -0.00750000
C       -1.46540000      -0.43580000      -0.37670000
C        1.17420000      -0.68070000      -0.65220000
N        1.99730000      -0.15940000       0.52500000
C        0.70850000      -0.70070000       1.14240000
C        0.84680000      -1.91290000       0.20690000
C        0.33910000      -3.26980000       0.06000000
O        1.71490000      -3.00220000       0.42010000
H        0.97360000       1.93660000       0.28280000
H       -0.29810000       1.97390000      -0.95780000
H       -0.74120000       1.95480000       0.74870000
H       -1.75300000      -0.03900000      -1.35680000
H       -1.56320000      -1.52160000      -0.41450000
H       -2.19530000      -0.05850000       0.34840000
H        1.53820000      -0.62790000      -1.67950000
H        2.75230000      -0.82430000       0.71350000
H        0.52670000      -0.67130000       2.21780000
H       -0.26410000      -3.71910000       0.84810000
H        0.19760000      -3.69920000      -0.93110000
