15
Properties=species:S:1:pos:R:3 gdb_51768=T pbc="F F F"
O        0.12620000      -0.01590000      -0.27100000
C        0.13530000       1.17350000      -0.28720000
O        1.12940000       1.90120000       0.28230000
C        1.04720000       3.30850000       0.21620000
C        1.78950000       3.97620000       1.39370000
N        2.94160000       4.24100000       0.50090000
C        2.12770000       3.97960000      -0.70190000
C        2.75400000       3.15770000      -1.73530000
N        3.22150000       2.51720000      -2.57540000
H       -0.65000000       1.80770000      -0.74220000
H        0.01990000       3.62860000       0.02540000
H        1.26720000       4.86740000       1.76460000
H        2.01710000       3.31080000       2.23050000
H        3.35690000       5.16350000       0.55240000
H        1.71010000       4.87600000      -1.18280000
