17
Properties=species:S:1:pos:R:3 gdb_73913=T pbc="F F F"
C       -0.03510000       1.51480000       0.11050000
C       -0.02690000       0.02660000       0.02580000
C       -0.00290000      -0.74010000      -1.08400000
C       -0.01900000      -2.23290000      -0.77780000
C        0.02560000      -2.25970000       0.74430000
N        1.25040000      -1.66190000       1.30670000
C       -0.00280000      -0.85340000       1.23220000
C        0.05230000      -0.24410000      -2.41290000
N        0.08650000       0.14140000      -3.50580000
H        0.86150000       1.87350000       0.63080000
H       -0.07210000       1.97700000      -0.87820000
H       -0.89720000       1.86600000       0.69100000
H       -0.92690000      -2.70870000      -1.16680000
H        0.83910000      -2.74870000      -1.22100000
H       -0.46330000      -3.06260000       1.28450000
H        1.36020000      -1.99450000       2.26360000
H       -0.48480000      -0.54480000       2.15370000
