15
Properties=species:S:1:pos:R:3 gdb_30991=T pbc="F F F"
N       -0.08200000       1.33580000      -0.30430000
C       -0.10390000      -0.04790000      -0.15780000
C       -1.11430000      -0.91780000       0.02670000
C       -2.59240000      -0.73420000       0.06310000
O       -2.99100000       0.37950000      -0.73690000
O       -0.58330000      -2.19160000       0.24910000
C        0.78730000      -2.11600000       0.19180000
O        1.53670000      -3.04030000       0.35100000
N        1.07460000      -0.79210000      -0.08720000
H        0.47530000       1.64210000      -1.09550000
H       -1.03020000       1.68370000      -0.40130000
H       -3.08330000      -1.66670000      -0.25100000
H       -2.96040000      -0.50460000       1.07070000
H       -2.77530000       0.16110000      -1.65060000
H        2.01050000      -0.42740000      -0.04980000
