18
Properties=species:S:1:pos:R:3 gdb_66594=T pbc="F F F"
O       -0.05120000       1.35520000      -0.18430000
C        0.01960000      -0.00800000       0.00070000
C        1.17260000      -0.87950000      -0.57170000
C       -0.25750000      -1.06710000      -1.00950000
N       -0.43250000      -2.05740000       0.14830000
C        1.09250000      -2.15190000       0.26040000
C        1.45060000      -2.03980000       1.74150000
C        0.30660000      -1.15500000       2.32450000
C       -0.57440000      -0.87500000       1.10840000
H        0.67940000       1.77120000       0.28660000
H        1.99490000      -0.42440000      -1.11190000
H       -0.76440000      -1.10060000      -1.96260000
H        1.46800000      -3.04770000      -0.23950000
H        1.46510000      -3.02590000       2.21470000
H        2.44200000      -1.59790000       1.87870000
H       -0.24960000      -1.68680000       3.10150000
H        0.67440000      -0.22580000       2.77090000
H       -1.62430000      -0.66220000       1.32030000
