21
Properties=species:S:1:pos:R:3 gdb_92022=T pbc="F F F"
C       -0.04760000       1.60890000       0.00370000
C        0.00680000       0.07350000       0.01250000
C        0.51640000      -0.55430000      -1.32310000
N        1.92970000      -0.87450000      -1.49890000
C        2.98100000       0.05410000      -1.10210000
C        2.73170000      -1.18440000      -0.30860000
C        2.10830000      -1.09490000       1.05700000
N        1.95820000       0.23480000       1.67070000
C        0.75450000      -0.48550000       1.22260000
H        0.94660000       2.05610000      -0.04490000
H       -0.63040000       1.96420000      -0.85270000
H       -0.52630000       1.98440000       0.91450000
H       -1.02900000      -0.27580000       0.10460000
H       -0.01240000      -1.50490000      -1.46600000
H        0.22270000       0.09410000      -2.15650000
H        3.83030000       0.10200000      -1.77950000
H        2.72550000       0.98990000      -0.61670000
H        3.39640000      -2.03600000      -0.43950000
H        2.36050000      -1.92220000       1.71560000
H        2.05370000       0.17150000       2.68010000
H        0.12460000      -0.90950000       2.00110000
