20
Properties=species:S:1:pos:R:3 gdb_68390=T pbc="F F F"
C       -0.00770000       1.51920000      -0.00180000
C        0.09420000       0.01420000      -0.06210000
C        0.47320000      -0.68910000      -1.38690000
C       -0.57600000      -1.70210000      -0.90340000
C        0.00770000      -2.71990000       0.08600000
N        0.69300000      -2.07960000       1.22550000
C        2.00050000      -1.45180000       1.03870000
C        0.77440000      -0.61250000       1.14890000
O       -1.22420000      -0.64530000      -0.14080000
H        0.99070000       1.96950000      -0.00690000
H       -0.57100000       1.89910000      -0.85800000
H       -0.51880000       1.83340000       0.91410000
H        0.10940000      -0.11230000      -2.23960000
H        1.49750000      -1.01330000      -1.57020000
H       -1.25150000      -2.16820000      -1.62620000
H       -0.81770000      -3.30900000       0.50160000
H        0.68490000      -3.41490000      -0.42530000
H        2.66680000      -1.53800000       1.89420000
H        2.50430000      -1.52920000       0.07940000
H        0.56620000      -0.10210000       2.08840000
