18
Properties=species:S:1:pos:R:3 gdb_37773=T pbc="F F F"
C        0.04840000       1.59920000       0.10170000
C        1.55000000       1.44810000      -0.09100000
C        2.16420000       0.62630000       0.99020000
C        1.78790000       0.63450000       2.41490000
C        0.74910000       0.04370000       3.03200000
C       -0.33570000      -0.71060000       2.43000000
C       -0.68020000      -0.73320000       1.13200000
C       -0.02010000       0.03580000       0.04100000
N        1.49230000      -0.06610000      -0.12750000
H       -0.26390000       2.05740000       1.04260000
H       -0.46840000       2.08640000      -0.72640000
H        2.16140000       2.00360000      -0.79520000
H        3.24150000       0.52360000       0.85690000
H        2.50900000       1.15800000       3.04050000
H        0.70900000       0.13080000       4.11550000
H       -0.93830000      -1.29310000       3.12340000
H       -1.52620000      -1.34920000       0.83820000
H       -0.43170000      -0.27650000      -0.92090000
