15
Properties=species:S:1:pos:R:3 gdb_27712=T pbc="F F F"
N        0.12850000       1.34330000       0.14270000
C       -0.05390000      -0.02170000       0.06130000
C       -1.17550000      -0.80740000       0.06830000
C       -0.69870000      -2.15530000       0.05250000
N       -1.47650000      -3.30140000       0.12230000
C        0.67680000      -2.10070000       0.02640000
O        1.06850000      -0.75390000       0.03920000
C        1.64600000      -3.10010000      -0.01140000
C        2.45230000      -4.00050000      -0.05750000
H        1.01050000       1.65230000      -0.24310000
H       -0.64850000       1.88390000      -0.20780000
H       -2.20050000      -0.47490000       0.10390000
H       -2.35880000      -3.23550000      -0.36520000
H       -0.97600000      -4.14140000      -0.13660000
H        3.16610000      -4.78540000      -0.07140000
