14
Properties=species:S:1:pos:R:3 gdb_43315=T pbc="F F F"
O        0.01670000       0.04070000       0.29700000
C       -0.04240000       1.22400000       0.07540000
C       -1.24970000       2.06540000      -0.08900000
C       -0.91800000       3.33090000      -0.36950000
C        0.58020000       3.55590000      -0.42830000
N        1.03260000       4.43840000       0.66670000
C        1.66990000       3.68180000       1.46080000
O        1.84330000       2.37060000       1.16620000
C        1.17600000       2.16590000      -0.10180000
H       -2.24890000       1.66210000       0.01400000
H       -1.61000000       4.15110000      -0.52240000
H        0.88630000       3.97370000      -1.39260000
H        2.11870000       3.98830000       2.39920000
H        1.89960000       1.75740000      -0.80950000
