16
Properties=species:S:1:pos:R:3 gdb_32319=T pbc="F F F"
O        0.09540000       1.36420000      -0.16310000
C        0.02630000      -0.03470000      -0.14250000
C       -1.38790000      -0.53450000      -0.00150000
N       -2.33370000       0.34460000       0.08030000
C       -3.64350000      -0.06610000       0.21070000
C       -3.95980000      -1.37890000       0.25460000
N       -2.96250000      -2.31690000       0.16860000
C       -1.61090000      -1.99030000       0.03490000
N       -0.62840000      -2.80970000      -0.05110000
H       -0.82120000       1.67020000      -0.07820000
H        0.45560000      -0.46970000      -1.05870000
H        0.62260000      -0.45250000       0.68400000
H       -4.40020000       0.70390000       0.27570000
H       -4.97010000      -1.75350000       0.35580000
H       -3.20200000      -3.29660000       0.20030000
H       -0.92860000      -3.78470000      -0.01200000
