14
Properties=species:S:1:pos:R:3 gdb_128885=T pbc="F F F"
N        0.06810000      -1.13990000      -0.33730000
C        0.00900000       0.00240000      -0.15960000
C       -0.01130000       1.40710000       0.06130000
N       -1.19050000       2.07370000       0.12440000
N       -0.76730000       3.31160000       0.33540000
C       -1.14480000       4.71960000       0.54290000
C        0.41420000       4.98700000       0.64010000
C        0.56190000       3.48750000       0.40970000
C        1.13420000       2.24550000       0.23420000
H       -1.65210000       5.16790000      -0.31380000
H       -1.71630000       4.89050000       1.45740000
H        0.81260000       5.62960000      -0.14710000
H        0.74950000       5.35140000       1.61290000
H        2.16610000       1.94060000       0.22260000
