12
Properties=species:S:1:pos:R:3 gdb_19784=T pbc="F F F"
O        0.00150000       0.01560000      -0.01800000
C       -0.01460000       1.21760000       0.01900000
C       -1.26180000       2.09110000      -0.05580000
O       -1.34240000       3.13100000       0.92880000
C       -0.81860000       3.46910000      -0.34640000
C        0.71460000       3.49040000      -0.37040000
O        1.28730000       3.16760000       0.88760000
C        1.20480000       2.12540000      -0.09450000
H       -2.20000000       1.64590000      -0.37380000
H       -1.39480000       4.16690000      -0.94600000
H        1.25210000       4.20370000      -0.98750000
H        2.14460000       1.70630000      -0.44190000
