19
Properties=species:S:1:pos:R:3 gdb_38789=T pbc="F F F"
C       -0.04780000       1.54440000       0.04090000
C        1.51430000       1.56260000      -0.02510000
C        2.10720000       1.78560000      -1.42530000
C        1.78670000       0.51330000      -2.20430000
O        0.35940000       0.38090000      -2.47800000
C        0.21030000      -0.60170000      -1.43500000
C       -0.02860000       0.00050000      -0.00620000
C        1.52520000       0.00710000       0.21240000
C        1.73540000      -0.65180000      -1.17900000
H       -0.41420000       1.90730000       1.00480000
H       -0.58090000       2.05490000      -0.76430000
H        1.99590000       2.18450000       0.73170000
H        1.71000000       2.67620000      -1.92360000
H        3.19800000       1.89520000      -1.36130000
H        2.36840000       0.38750000      -3.12250000
H       -0.41630000      -1.44180000      -1.74340000
H       -0.72190000      -0.55650000       0.62610000
H        2.01840000      -0.40180000       1.09290000
H        2.36380000      -1.53070000      -1.30740000
