18
Properties=species:S:1:pos:R:3 gdb_119666=T pbc="F F F"
C       -0.00170000       1.33650000      -0.02280000
O        0.01390000      -0.07130000      -0.07810000
C       -1.26490000      -0.64190000       0.11240000
C       -1.11850000      -2.12740000       0.07380000
N       -0.39860000      -2.94170000       1.10780000
C       -0.85960000      -3.97190000       0.12060000
C       -2.20730000      -3.22900000      -0.11430000
O       -2.11680000      -3.24730000      -1.56690000
C       -0.73650000      -3.05200000      -1.13680000
H        1.02320000       1.68050000      -0.18040000
H       -0.64680000       1.76800000      -0.80420000
H       -0.35430000       1.70230000       0.95420000
H       -1.69150000      -0.33200000       1.08070000
H       -1.96290000      -0.32880000      -0.68220000
H        0.60940000      -2.79200000       1.02320000
H       -0.67280000      -5.04070000       0.22200000
H       -3.17810000      -3.35210000       0.36350000
H        0.04610000      -2.95570000      -1.89000000
