19
Properties=species:S:1:pos:R:3 gdb_86949=T pbc="F F F"
C        0.16400000       1.45630000      -0.17000000
C        0.00900000      -0.02170000       0.12090000
O        0.80780000      -0.85720000      -0.75570000
C        1.37300000      -1.59030000       0.35550000
C        2.89690000      -1.65800000       0.30580000
C        3.37360000      -2.39240000      -0.93130000
O        4.08660000      -3.36300000      -0.91230000
C        0.69870000      -0.62950000       1.37740000
O        1.51790000       0.19900000       2.15720000
H        1.20880000       1.77870000      -0.11080000
H       -0.18880000       1.67290000      -1.18260000
H       -0.42380000       2.05030000       0.53640000
H       -1.05020000      -0.30620000       0.05490000
H        0.95920000      -2.60750000       0.39970000
H        3.30440000      -0.63890000       0.26650000
H        3.28960000      -2.15940000       1.19460000
H        3.00510000      -1.96390000      -1.88780000
H        0.02450000      -1.12020000       2.08120000
H        2.07580000       0.72970000       1.57950000
