18
Properties=species:S:1:pos:R:3 gdb_57073=T pbc="F F F"
O       -0.20110000       1.33800000       0.02890000
C        0.06450000      -0.05120000      -0.07070000
C        0.86670000      -0.35550000      -1.27440000
N        1.53350000      -0.56680000      -2.19440000
C        0.74360000      -0.60570000       1.18320000
C        0.00190000      -0.43480000       2.53710000
C        0.43020000      -1.88270000       2.90460000
C        0.73550000      -2.14540000       1.40240000
O       -0.36070000      -2.69510000       0.69340000
H        0.64100000       1.80250000       0.09840000
H       -0.90920000      -0.53380000      -0.18480000
H        1.76940000      -0.22650000       1.24380000
H        0.33770000       0.37280000       3.18910000
H       -1.07740000      -0.34410000       2.39520000
H        1.33630000      -1.90910000       3.51640000
H       -0.32320000      -2.53250000       3.35640000
H        1.66420000      -2.67840000       1.16570000
H       -0.44400000      -3.62270000       0.93450000
