16
Properties=species:S:1:pos:R:3 gdb_49200=T pbc="F F F"
O       -0.89150000       1.11670000      -0.00600000
C        0.24380000       0.88810000       0.31890000
C        1.38560000       1.82080000       0.08890000
N        2.57620000       1.52970000       0.44610000
C        3.40700000       2.67500000       0.06210000
C        4.17000000       2.48920000      -1.28150000
C        3.11280000       3.39020000      -1.99870000
C        2.41380000       3.65060000      -0.64390000
O        1.12580000       3.00930000      -0.50380000
H        0.56100000      -0.04330000       0.82620000
H        3.99840000       3.01680000       0.91450000
H        5.17750000       2.91060000      -1.26980000
H        4.22590000       1.45330000      -1.62060000
H        3.51570000       4.28430000      -2.47920000
H        2.46920000       2.87290000      -2.71320000
H        2.31340000       4.68530000      -0.31570000
