15
Properties=species:S:1:pos:R:3 gdb_10598=T pbc="F F F"
C       -0.41990000       1.36290000      -0.01550000
N        0.03380000      -0.02680000       0.04940000
C        1.42680000      -0.31070000      -0.07130000
C        0.73530000      -0.52190000       1.26590000
C        1.12370000       0.38840000       2.39010000
O        1.56850000       1.50370000       2.24410000
C        0.33150000      -1.91260000       1.63640000
O        0.48900000      -2.39440000       2.73020000
H        0.28670000       2.08360000       0.40850000
H       -0.58840000       1.59680000      -1.07070000
H       -1.37550000       1.44630000       0.50930000
H        1.69930000      -1.18510000      -0.65840000
H        2.13580000       0.51610000      -0.07840000
H        0.95970000      -0.04810000       3.39300000
H       -0.13900000      -2.47140000       0.79880000
