19
Properties=species:S:1:pos:R:3 gdb_48914=T pbc="F F F"
O       -0.01450000      -0.06630000       0.01430000
C        0.04170000       1.14000000       0.00600000
C        1.30440000       1.92060000       0.00300000
C        2.74980000       1.38530000       0.01030000
C        2.89200000       2.92610000      -0.00130000
C        1.73060000       3.02660000      -1.04270000
C        0.93870000       4.30870000      -0.79390000
C        0.93520000       4.32070000       0.76130000
C        1.72600000       3.04260000       1.03330000
H       -0.89020000       1.75360000      -0.00010000
H        3.07110000       0.86530000       0.91590000
H        3.07500000       0.85140000      -0.88590000
H        3.81300000       3.51240000      -0.00380000
H        1.91380000       2.70840000      -2.07080000
H        1.44080000       5.18230000      -1.22160000
H       -0.06760000       4.27100000      -1.22200000
H        1.43550000       5.20090000       1.17760000
H       -0.07300000       4.28960000       1.18540000
H        1.90470000       2.74030000       2.06700000
