18
Properties=species:S:1:pos:R:3 gdb_69277=T pbc="F F F"
O       -0.02380000       1.38000000       0.06570000
C        0.02880000      -0.01740000      -0.02240000
C       -0.55050000      -0.67480000      -1.23930000
C       -1.31040000      -0.69810000       0.09020000
C       -1.44540000      -1.97870000       0.83180000
N       -2.56310000      -2.56380000       0.93870000
O       -0.29310000      -2.52280000       1.34080000
C        0.69550000      -1.59320000       1.80950000
C        1.20290000      -0.69350000       0.68870000
H        0.62410000       1.74060000      -0.55020000
H       -0.97320000      -0.03560000      -2.00580000
H       -0.10710000      -1.59980000      -1.59240000
H       -2.18580000      -0.06370000       0.13220000
H       -2.45100000      -3.42260000       1.48210000
H        0.26570000      -0.98860000       2.61910000
H        1.49380000      -2.20980000       2.22850000
H        1.80610000      -1.27940000      -0.01310000
H        1.84500000       0.08280000       1.11550000
