19
Properties=species:S:1:pos:R:3 gdb_38151=T pbc="F F F"
C       -0.06300000       1.51760000       0.21610000
C        1.37290000       2.07150000       0.06120000
C        2.25920000       0.87070000       0.45870000
C        3.62810000       0.73810000      -0.16740000
C        3.68700000      -0.28140000      -1.03330000
C        2.37320000      -0.98800000      -1.09440000
O        1.96090000      -1.60590000       0.15810000
C        1.47980000      -0.30570000      -0.14270000
C        0.00370000       0.04170000      -0.26350000
H       -0.35140000       1.54840000       1.27260000
H       -0.79990000       2.10690000      -0.33530000
H        1.56580000       2.33680000      -0.98500000
H        1.55130000       2.96430000       0.66640000
H        2.31250000       0.79560000       1.55280000
H        4.46130000       1.37960000       0.09980000
H        4.55460000      -0.57650000      -1.61120000
H        2.02810000      -1.50590000      -1.98460000
H       -0.60520000      -0.62430000       0.35410000
H       -0.34770000      -0.06310000      -1.29480000
