23
Properties=species:S:1:pos:R:3 gdb_121875=T pbc="F F F"
C       -0.05040000       1.56290000       0.07460000
C       -0.09930000       0.03860000      -0.06220000
C        0.72530000      -0.48170000      -1.24390000
C        0.67850000      -2.00620000      -1.38610000
C        1.56320000      -2.51110000      -2.54280000
O        2.89360000      -2.10110000      -2.37140000
C        1.51120000      -4.03560000      -2.67530000
C        0.17910000      -4.70290000      -2.92760000
O        2.54230000      -4.66800000      -2.57240000
H        0.97750000       1.91290000       0.21940000
H       -0.44160000       2.05360000      -0.82360000
H       -0.64370000       1.90760000       0.92740000
H        0.26550000      -0.42410000       0.86450000
H       -1.14280000      -0.28670000      -0.17200000
H        0.36280000      -0.02100000      -2.17390000
H        1.77050000      -0.17290000      -1.13480000
H        1.02550000      -2.47600000      -0.45630000
H       -0.35700000      -2.33200000      -1.54760000
H        1.16340000      -2.09600000      -3.48640000
H        3.40840000      -2.92520000      -2.35170000
H       -0.42470000      -4.13600000      -3.64240000
H        0.34050000      -5.71900000      -3.28990000
H       -0.38870000      -4.75140000      -1.99120000
