23
Properties=species:S:1:pos:R:3 gdb_73798=T pbc="F F F"
C        0.08190000       1.52330000      -0.12110000
C       -0.00390000       0.03140000      -0.07380000
C       -1.06410000      -0.76210000       0.09560000
C       -2.49750000      -0.37730000       0.29030000
C       -0.62810000      -2.22010000       0.06720000
C       -0.89100000      -2.94390000       1.39710000
C       -1.24310000      -2.99970000      -1.10570000
O        0.79670000      -2.16050000      -0.13410000
C        1.23150000      -0.81450000      -0.23000000
H        0.74690000       1.90560000       0.66410000
H        0.50120000       1.86450000      -1.07650000
H       -0.89270000       2.00050000       0.00520000
H       -2.63290000       0.70680000       0.28470000
H       -3.13530000      -0.79560000      -0.49800000
H       -2.88810000      -0.75570000       1.24290000
H       -1.96330000      -3.05850000       1.58550000
H       -0.44120000      -3.94090000       1.37160000
H       -0.44850000      -2.38800000       2.22850000
H       -1.04950000      -2.48400000      -2.05050000
H       -0.79880000      -3.99800000      -1.16100000
H       -2.32540000      -3.11460000      -0.98660000
H        1.72970000      -0.64300000      -1.19950000
H        1.98100000      -0.60020000       0.55080000
