18
Properties=species:S:1:pos:R:3 gdb_117499=T pbc="F F F"
C       -0.04470000       1.48020000       0.01730000
C       -0.01260000       0.02550000      -0.00540000
C        0.02240000      -1.17630000      -0.02720000
C        0.03360000      -2.64000000      -0.04600000
C       -1.40100000      -3.23050000      -0.00590000
C       -1.42130000      -4.75270000       0.07570000
O       -2.77900000      -5.14160000       0.19260000
C        0.77970000      -3.14070000      -1.21580000
N        1.35510000      -3.55650000      -2.12740000
H        0.96810000       1.89700000       0.01570000
H       -0.57080000       1.87710000      -0.85730000
H       -0.55700000       1.85030000       0.91170000
H        0.57340000      -3.00170000       0.84160000
H       -1.90720000      -2.81510000       0.87000000
H       -1.95410000      -2.90180000      -0.88990000
H       -0.95280000      -5.18270000      -0.82160000
H       -0.83180000      -5.08670000       0.94670000
H       -2.82400000      -6.10050000       0.13710000
