20
Properties=species:S:1:pos:R:3 gdb_88176=T pbc="F F F"
C       -0.38150000       1.33100000       0.11560000
N       -0.06690000      -0.08580000       0.21980000
C        1.26910000      -0.51960000      -0.19650000
C        0.88110000      -0.56640000       1.23250000
C        1.46660000       0.30050000       2.34260000
O        1.17040000      -0.36690000       3.56870000
C        0.13130000      -1.31090000       3.33560000
C        0.41380000      -1.85700000       1.92730000
O       -0.66730000      -2.46900000       1.28420000
H        0.48410000       1.99240000       0.27420000
H       -0.77900000       1.52810000      -0.88450000
H       -1.15280000       1.59220000       0.84670000
H        1.30990000      -1.43470000      -0.78250000
H        1.97050000       0.25500000      -0.50610000
H        2.55470000       0.40040000       2.26810000
H        1.03420000       1.31160000       2.34050000
H        0.17980000      -2.06340000       4.12560000
H       -0.86620000      -0.84120000       3.35220000
H        1.24590000      -2.57180000       1.97890000
H       -1.03100000      -1.77830000       0.70150000
