13
Properties=species:S:1:pos:R:3 gdb_10445=T pbc="F F F"
C       -0.09070000      -1.14210000       0.37280000
C       -0.04960000       0.02330000       0.08780000
C        0.01960000       1.43660000      -0.26020000
C        1.42630000       2.01460000      -0.13050000
C        1.62930000       3.41910000       0.27840000
O        1.85420000       2.34540000       1.18840000
C        2.44130000       1.39430000      -0.96770000
N        3.23150000       0.91090000      -1.65810000
H       -0.12670000      -2.17360000       0.62330000
H       -0.32900000       1.58920000      -1.28940000
H       -0.63670000       2.02210000       0.39320000
H        2.51850000       3.94980000      -0.05400000
H        0.75270000       4.03290000       0.47940000
