20
Properties=species:S:1:pos:R:3 gdb_30012=T pbc="F F F"
C       -0.00090000       1.44320000       0.04390000
N       -0.04130000      -0.00230000       0.02530000
C       -0.01800000      -0.79520000      -1.10730000
C        0.00080000      -2.12370000      -0.73220000
C       -0.01520000      -2.13660000       0.68830000
C       -0.03810000      -0.83380000       1.11350000
C        0.01010000      -0.66100000       2.59770000
C       -0.28070000      -2.12720000       3.06150000
C        0.04400000      -3.07650000       1.86040000
H        1.00410000       1.82180000       0.26680000
H       -0.30600000       1.82650000      -0.93220000
H       -0.69150000       1.83330000       0.79720000
H       -0.03360000      -0.33960000      -2.08560000
H        0.00610000      -2.96430000      -1.40970000
H        0.99480000      -0.31610000       2.94580000
H       -0.72650000       0.04360000       3.00260000
H        0.27590000      -2.39000000       3.96510000
H       -1.34460000      -2.21210000       3.30300000
H       -0.66730000      -3.90820000       1.80790000
H        1.04000000      -3.52790000       1.96960000
