17
Properties=species:S:1:pos:R:3 gdb_85576=T pbc="F F F"
C        0.70200000       1.42780000      -0.12040000
C        0.00690000       0.06160000       0.04540000
N        0.22470000      -0.85610000      -1.06940000
C        1.41900000      -1.53450000      -1.24410000
O        1.82190000      -1.91850000      -2.32430000
N        2.10600000      -1.73660000      -0.05780000
C        1.39510000      -1.78410000       1.20930000
C        0.46080000      -0.58830000       1.35440000
O        0.09990000      -0.17800000       2.42800000
H        1.78480000       1.30360000      -0.21360000
H        0.33420000       1.93000000      -1.02000000
H        0.49130000       2.06060000       0.74570000
H       -1.07130000       0.22580000       0.14390000
H       -0.19190000      -0.59780000      -1.95230000
H        2.88170000      -2.37180000      -0.17220000
H        0.77540000      -2.69070000       1.31880000
H        2.10280000      -1.77070000       2.04130000
