15
Properties=species:S:1:pos:R:3 gdb_126055=T pbc="F F F"
C        0.10310000       1.52370000      -0.35020000
C       -0.01950000       0.06410000       0.00290000
N        1.18920000      -0.75420000      -0.08130000
C        0.58040000      -0.54650000       1.24030000
C        1.34360000       0.21400000       2.24260000
N        2.32870000       1.04390000       2.03570000
O        2.66780000       1.48440000       3.27190000
N        1.84550000       0.87580000       4.21130000
N        1.05420000       0.11800000       3.59680000
H        1.05000000       1.93520000       0.00440000
H        0.06300000       1.64940000      -1.43710000
H       -0.72020000       2.09740000       0.08790000
H       -0.95540000      -0.40420000      -0.30150000
H        0.98720000      -1.69330000      -0.41270000
H        0.02030000      -1.35850000       1.69600000
