19
Properties=species:S:1:pos:R:3 gdb_110370=T pbc="F F F"
O       -0.08580000       1.27120000      -0.50110000
C       -0.05790000      -0.00630000       0.12260000
C       -1.45430000      -0.57050000       0.10340000
C       -1.92790000      -1.24700000      -1.15800000
C       -1.61100000      -2.07210000       0.07740000
C       -3.03390000      -2.61650000       0.34410000
C       -3.47880000      -3.10180000      -1.06310000
C       -3.43930000      -1.55890000      -1.24300000
O       -3.88070000      -1.44550000       0.14480000
H        0.77950000       1.67600000      -0.38900000
H        0.63120000      -0.68890000      -0.40260000
H        0.29130000       0.06950000       1.16480000
H       -2.18370000       0.00060000       0.66580000
H       -1.31860000      -1.24590000      -2.05350000
H       -0.75460000      -2.73170000       0.15380000
H       -3.23640000      -3.16030000       1.26670000
H       -2.79410000      -3.71980000      -1.65020000
H       -4.49580000      -3.49800000      -1.06630000
H       -4.06030000      -1.01320000      -1.95280000
