21
Properties=species:S:1:pos:R:3 gdb_81012=T pbc="F F F"
C       -0.09010000       1.50130000      -0.04440000
C        0.08710000      -0.00540000       0.06570000
O        0.97920000      -0.50980000      -0.96690000
C        1.94580000      -1.26900000      -0.21290000
C        2.96590000      -1.90780000      -1.10830000
C        1.06980000      -2.02120000       0.82800000
C        0.80260000      -0.56080000       1.30680000
C        2.29790000      -0.27360000       0.92740000
O        3.26720000      -0.80270000       1.80410000
H        0.84220000       2.04320000       0.13400000
H       -0.44400000       1.76110000      -1.04650000
H       -0.83690000       1.84720000       0.67870000
H       -0.89480000      -0.48420000      -0.05860000
H        3.44170000      -1.15400000      -1.74340000
H        3.73710000      -2.39460000      -0.50580000
H        2.49900000      -2.65550000      -1.75680000
H        0.22470000      -2.59520000       0.43990000
H        1.65790000      -2.59940000       1.53810000
H        0.38630000      -0.31990000       2.28580000
H        2.55740000       0.74210000       0.60600000
H        3.25790000      -0.28250000       2.61360000
