15
Properties=species:S:1:pos:R:3 gdb_45325=T pbc="F F F"
O        0.26440000       0.05750000       0.26060000
C        0.12630000       1.24210000       0.14050000
N       -0.94180000       2.09160000       0.27390000
C       -0.21840000       3.34060000      -0.00210000
C       -0.07940000       4.31600000       1.16800000
N        0.91330000       3.95840000       2.17520000
C        1.89260000       3.24210000       1.83290000
O        2.15080000       2.65970000       0.62750000
C        1.04620000       2.45410000      -0.23060000
H       -1.91030000       1.91590000       0.49970000
H       -0.58110000       3.85260000      -0.89990000
H        0.19340000       5.30200000       0.76720000
H       -1.04730000       4.44730000       1.66430000
H        2.70350000       3.02870000       2.52580000
H        1.43060000       2.42740000      -1.25020000
