17
Properties=species:S:1:pos:R:3 gdb_71265=T pbc="F F F"
C       -0.04640000       1.54110000       0.05270000
C       -0.08030000       0.03190000       0.03970000
C        0.28710000      -0.73480000      -1.29370000
C       -0.84300000      -1.71580000      -1.00310000
C       -0.83490000      -2.08680000       0.46510000
O        0.35690000      -1.94080000       1.22330000
C        0.77690000      -0.64030000       1.11050000
O        1.70800000      -0.20290000       1.71990000
C       -1.41000000      -0.77530000       0.07030000
H        0.98780000       1.89390000       0.00310000
H       -0.60040000       1.95560000      -0.79470000
H       -0.48470000       1.93590000       0.97490000
H        0.05050000      -0.10060000      -2.15100000
H        1.30560000      -1.12290000      -1.39750000
H       -1.36890000      -2.32470000      -1.72890000
H       -1.44320000      -2.91090000       0.81140000
H       -2.40880000      -0.41020000       0.27020000
