18
Properties=species:S:1:pos:R:3 gdb_114503=T pbc="F F F"
C       -0.25490000       1.57220000       0.06970000
O       -0.21390000       0.25020000       0.56620000
C       -1.30560000      -0.52840000       0.16540000
C       -1.26020000      -1.16890000      -1.25460000
N       -1.28230000      -2.55520000      -0.68110000
C        0.09180000      -3.12680000      -0.50850000
C        0.14730000      -2.57230000       0.92850000
O        0.90570000      -2.65780000       1.84410000
C       -1.25400000      -1.96820000       0.72500000
H        0.62100000       2.09110000       0.46450000
H       -0.21930000       1.60120000      -1.02940000
H       -1.16350000       2.09760000       0.40130000
H       -2.25220000      -0.01170000       0.38090000
H       -2.13200000      -0.97530000      -1.88540000
H       -0.35100000      -0.93160000      -1.81780000
H        0.10080000      -4.22170000      -0.55380000
H        0.85190000      -2.74270000      -1.19800000
H       -2.02380000      -2.26630000       1.44110000
