10
Properties=species:S:1:pos:R:3 gdb_130817=T pbc="F F F"
O       -0.10920000      -0.00760000       0.00000000
C       -0.01820000       1.19600000       0.00760000
C        1.24390000       1.90380000      -0.00070000
C        2.28440000       2.51570000      -0.00740000
C        3.49040000       3.24030000      -0.01500000
N        4.69090000       2.71040000      -0.03080000
O        5.52630000       3.75230000      -0.03240000
N        4.77220000       4.94800000      -0.01680000
N        3.56400000       4.63150000      -0.00650000
H       -0.90610000       1.85690000       0.02160000
