19
Properties=species:S:1:pos:R:3 gdb_106347=T pbc="F F F"
C       -0.00940000       1.34730000       0.01750000
O        0.04650000      -0.06660000       0.07260000
C        0.69960000      -0.56910000       1.16900000
C        0.32770000      -0.40610000       2.68300000
C        1.56240000      -1.36710000       2.61270000
C        0.87630000      -2.08340000       1.41890000
C        2.19720000      -0.36890000       1.58650000
C        2.25540000      -1.98060000       3.77440000
O        2.37760000      -3.16710000       3.95100000
H        0.99490000       1.79120000      -0.02400000
H       -0.55070000       1.60830000      -0.89390000
H       -0.54310000       1.76590000       0.88210000
H        0.49760000       0.57070000       3.14210000
H       -0.61090000      -0.85880000       3.01110000
H       -0.02790000      -2.65060000       1.64800000
H        1.53370000      -2.61970000       0.73190000
H        2.95450000      -0.78770000       0.91970000
H        2.48590000       0.61030000       1.97580000
H        2.66970000      -1.24400000       4.50180000
