21
Properties=species:S:1:pos:R:3 gdb_114707=T pbc="F F F"
O        0.22280000       1.06990000      -0.60770000
C       -0.02940000      -0.29710000      -0.31510000
C       -1.47720000      -0.41330000       0.16160000
C       -2.51990000      -0.00900000      -0.92860000
C       -3.18570000      -1.29410000      -1.39030000
C       -2.29830000      -2.42500000      -1.88610000
C       -2.77170000      -2.42240000      -0.46780000
O       -3.61980000      -3.47380000      -0.11370000
C       -1.85100000      -1.85350000       0.60570000
H        1.10770000       1.14120000      -0.97650000
H        0.14410000      -0.92660000      -1.20170000
H        0.64260000      -0.66190000       0.47870000
H       -1.55850000       0.27230000       1.01070000
H       -3.27490000       0.65790000      -0.49810000
H       -2.03620000       0.54980000      -1.73600000
H       -4.19490000      -1.25470000      -1.78610000
H       -2.77860000      -3.15580000      -2.52740000
H       -1.25470000      -2.24060000      -2.11800000
H       -4.22080000      -3.15280000       0.56840000
H       -0.96930000      -2.48230000       0.77790000
H       -2.40500000      -1.82910000       1.55280000
