14
Properties=species:S:1:pos:R:3 gdb_43270=T pbc="F F F"
O        0.04370000      -0.02370000      -0.00580000
C       -0.01110000       1.18070000       0.02120000
C       -1.22720000       2.04000000       0.10600000
C       -0.89720000       3.33210000      -0.00170000
C        0.59420000       3.51200000      -0.11800000
N        1.27690000       3.01510000       1.12390000
C        1.17150000       2.13860000      -0.06840000
C        1.15900000       4.58740000      -0.87110000
C        1.61680000       5.51060000      -1.49120000
H       -2.21700000       1.62900000       0.25400000
H       -1.57240000       4.17820000       0.02600000
H        2.22190000       3.40240000       1.14260000
H        2.06320000       1.85200000      -0.61200000
H        2.02520000       6.31860000      -2.04660000
