18
Properties=species:S:1:pos:R:3 gdb_75085=T pbc="F F F"
C        0.11530000       1.54380000       0.08950000
C       -0.00220000       0.04880000      -0.02140000
C       -0.02720000      -0.60520000      -1.18480000
C       -0.14110000      -2.10670000      -1.29910000
C       -0.80900000      -2.75450000      -0.09320000
O       -1.61050000      -3.65640000      -0.19360000
C       -0.45750000      -2.16510000       1.23390000
N        0.95690000      -1.77060000       1.42960000
C       -0.05900000      -0.71740000       1.25980000
H        1.02170000       1.83090000       0.63780000
H        0.14960000       2.01620000      -0.89510000
H       -0.73270000       1.96990000       0.64100000
H        0.05880000      -0.05190000      -2.11630000
H       -0.69730000      -2.40780000      -2.19060000
H        0.86490000      -2.54430000      -1.38870000
H       -1.01330000      -2.57410000       2.07200000
H        1.18770000      -1.87910000       2.41460000
H       -0.34660000      -0.15500000       2.14510000
