14
Properties=species:S:1:pos:R:3 gdb_25165=T pbc="F F F"
N       -0.03800000       1.28590000       0.40350000
C       -0.01640000       0.05740000       0.05740000
N        1.13840000      -0.65370000      -0.34170000
C        1.14270000      -1.96160000      -0.70690000
N        0.09340000      -2.71620000      -0.73450000
C       -1.08130000      -2.10710000      -0.36030000
C       -1.20670000      -0.80070000       0.02550000
C       -2.46220000      -0.25730000       0.39550000
C       -3.54320000       0.17390000       0.70380000
H        0.88760000       1.71420000       0.36170000
H        2.01010000      -0.14280000      -0.35110000
H        2.11200000      -2.36610000      -0.98830000
H       -1.96210000      -2.74020000      -0.38340000
H       -4.48870000       0.57070000       0.97870000
