20
Properties=species:S:1:pos:R:3 gdb_30685=T pbc="F F F"
C        0.11880000       1.54340000      -0.13510000
C        0.06350000       0.01880000      -0.00460000
C        0.63500000      -0.52810000       1.32480000
C       -0.19210000      -0.10810000       2.54660000
C        0.78460000      -2.01940000       1.24560000
C        0.20530000      -3.00740000       1.97240000
O        0.66120000      -4.21440000       1.50920000
C        1.50620000      -3.88280000       0.51030000
N        1.62630000      -2.61500000       0.30090000
H        1.14500000       1.91180000      -0.02450000
H       -0.24150000       1.86020000      -1.11870000
H       -0.49810000       2.04730000       0.61560000
H       -0.97260000      -0.32940000      -0.11130000
H        0.62830000      -0.43680000      -0.82430000
H        1.64810000      -0.11430000       1.43300000
H       -1.22270000      -0.47320000       2.46740000
H        0.23790000      -0.50530000       3.47140000
H       -0.23220000       0.97960000       2.64060000
H       -0.49150000      -3.04520000       2.79070000
H        1.99220000      -4.69680000      -0.00480000
