21
Properties=species:S:1:pos:R:3 gdb_86883=T pbc="F F F"
C       -0.59260000       1.21070000      -0.14060000
C        0.35870000       0.01710000      -0.20150000
C        1.55770000       0.21400000      -1.14560000
C        2.52770000      -0.88920000      -0.68670000
N        2.39260000      -0.82750000       0.76500000
C        1.01490000      -0.42990000       1.14430000
C        1.07980000       0.63030000       2.24640000
C        2.16310000      -2.20510000      -1.26170000
N        1.88680000      -3.25260000      -1.66740000
H       -0.08640000       2.12010000       0.19760000
H       -1.01200000       1.41330000      -1.13140000
H       -1.43040000       1.02090000       0.53780000
H       -0.20640000      -0.84340000      -0.57940000
H        1.29370000       0.13750000      -2.20210000
H        2.03720000       1.18370000      -0.97630000
H        3.56090000      -0.67950000      -0.98610000
H        2.71150000      -1.66670000       1.23130000
H        0.45260000      -1.28940000       1.53470000
H        1.61220000       1.52350000       1.90630000
H        0.08030000       0.92130000       2.58460000
H        1.62380000       0.23390000       3.10960000
