17
Properties=species:S:1:pos:R:3 gdb_51772=T pbc="F F F"
N       -0.24670000       1.19370000      -0.40340000
C       -0.35190000      -0.05560000      -0.52080000
O       -1.02290000      -0.75880000       0.42590000
C       -1.08560000      -2.15960000       0.26320000
C       -1.65080000      -2.84610000       1.52380000
N       -2.93600000      -3.08330000       0.82260000
C       -2.35650000      -2.70730000      -0.47970000
C       -3.16020000      -1.69170000      -1.26970000
O       -2.78490000      -1.23200000      -2.31780000
H        0.28230000       1.57280000      -1.18590000
H        0.05000000      -0.68000000      -1.32800000
H       -0.13470000      -2.54450000      -0.11470000
H       -1.09380000      -3.74990000       1.79860000
H       -1.73340000      -2.19260000       2.39710000
H       -3.29940000      -4.02640000       0.88550000
H       -2.09050000      -3.53630000      -1.15050000
H       -4.11550000      -1.39110000      -0.78740000
