18
Properties=species:S:1:pos:R:3 gdb_51528=T pbc="F F F"
O        0.84420000      -0.65460000       0.40420000
C        0.33400000       0.43740000       0.28100000
N        0.98820000       1.57940000      -0.07490000
C        2.39930000       1.63870000      -0.35680000
C        2.87360000       2.25170000      -1.70060000
C        4.07720000       2.90100000      -0.93300000
C        3.27440000       2.67560000       0.39520000
C        5.31210000       2.14450000      -1.01620000
C        6.32920000       1.50590000      -1.08150000
H       -0.74570000       0.62280000       0.45000000
H        0.44700000       2.42790000      -0.14300000
H        2.78250000       0.62660000      -0.22530000
H        3.10610000       1.56900000      -2.51870000
H        2.18430000       3.02370000      -2.05670000
H        4.26640000       3.94850000      -1.18110000
H        2.70290000       3.57220000       0.65500000
H        3.83060000       2.33530000       1.26940000
H        7.23020000       0.94740000      -1.14070000
