21
Properties=species:S:1:pos:R:3 gdb_73190=T pbc="F F F"
C        0.13700000       1.59830000      -0.01060000
C        0.06720000       0.08850000       0.03030000
C       -1.34990000      -0.54040000       0.25740000
C       -0.83020000      -1.27510000       1.52980000
C        0.60580000      -0.80050000       1.21420000
C        1.36720000      -1.67790000       0.18230000
C        1.00500000      -0.68810000      -0.96590000
C        0.39910000      -1.23880000      -2.22610000
O        0.56730000      -0.77990000      -3.32870000
H        1.17200000       1.95360000       0.04260000
H       -0.30070000       1.98560000      -0.93870000
H       -0.41480000       2.04050000       0.82700000
H       -2.12090000       0.20860000       0.45430000
H       -1.72000000      -1.18800000      -0.54020000
H       -1.22870000      -0.84680000       2.45320000
H       -0.97810000      -2.35840000       1.56760000
H        1.20420000      -0.39200000       2.03030000
H        2.44000000      -1.78620000       0.35270000
H        0.94320000      -2.68070000       0.05780000
H        1.84640000      -0.05110000      -1.25100000
H       -0.25130000      -2.13400000      -2.08080000
