22
Properties=species:S:1:pos:R:3 gdb_55464=T pbc="F F F"
N        0.17170000       1.11510000       0.67440000
C       -0.00910000       0.11080000      -0.23250000
O        0.83340000      -0.16800000      -1.06600000
C       -1.33570000      -0.64080000      -0.13280000
C       -2.11940000      -0.48610000      -1.45240000
C       -3.41040000      -1.31550000      -1.45170000
C       -3.13030000      -2.79460000      -1.15330000
C       -2.35890000      -2.95690000       0.16340000
C       -1.06620000      -2.13010000       0.16530000
H        1.03070000       1.63980000       0.64320000
H       -0.52040000       1.35470000       1.36110000
H       -1.93930000      -0.22240000       0.68550000
H       -2.34700000       0.57180000      -1.62910000
H       -1.46340000      -0.80680000      -2.27000000
H       -4.09990000      -0.91790000      -0.69340000
H       -3.91850000      -1.21010000      -2.41690000
H       -4.06860000      -3.35960000      -1.11660000
H       -2.53860000      -3.22300000      -1.97380000
H       -2.99820000      -2.63760000       0.99880000
H       -2.12330000      -4.01240000       0.34060000
H       -0.37600000      -2.50430000      -0.59980000
H       -0.55180000      -2.23050000       1.12830000
