17
Properties=species:S:1:pos:R:3 gdb_50496=T pbc="F F F"
O        0.14570000       0.12270000       0.95910000
C        0.04770000       1.17120000       0.38020000
C        1.21750000       1.94230000      -0.22190000
C        1.64500000       3.07060000       0.74300000
C        2.65870000       2.32940000       1.62530000
C        3.34060000       1.38500000       0.60980000
O        2.34980000       1.11550000      -0.39730000
C        4.53440000       1.97530000      -0.00040000
C        5.51590000       2.46770000      -0.48890000
H       -0.93430000       1.69130000       0.27120000
H        0.90360000       2.33390000      -1.19850000
H        2.12900000       3.87300000       0.18000000
H        0.81110000       3.49960000       1.30470000
H        3.36990000       2.99140000       2.12000000
H        2.14470000       1.73240000       2.38330000
H        3.60590000       0.42900000       1.07400000
H        6.38630000       2.89130000      -0.92590000
