19
Properties=species:S:1:pos:R:3 gdb_77724=T pbc="F F F"
C       -0.44250000       1.40690000       0.10440000
C       -0.10170000      -0.05700000      -0.04030000
C        0.63690000      -0.58430000      -1.24540000
C        1.43610000       0.26850000      -2.20650000
C        2.72720000       0.58320000      -1.38120000
O        2.38210000       0.41440000       0.01530000
C        1.34700000      -0.50770000       0.07440000
C        1.48550000      -2.02710000      -0.05910000
O        0.67810000      -2.02510000      -1.27670000
H       -1.32630000       1.66280000      -0.48850000
H       -0.65830000       1.64100000       1.15170000
H        0.38450000       2.04850000      -0.20650000
H       -0.84120000      -0.74340000       0.36790000
H        1.66390000      -0.28630000      -3.11900000
H        0.91050000       1.18490000      -2.48850000
H        3.53550000      -0.11110000      -1.64820000
H        3.09630000       1.60500000      -1.50720000
H        2.51390000      -2.34770000      -0.26280000
H        1.04810000      -2.65570000       0.72500000
