18
Properties=species:S:1:pos:R:3 gdb_40842=T pbc="F F F"
C       -0.17590000       1.30220000      -0.11490000
C        1.26970000       0.97010000       0.13410000
C        0.24330000      -0.13840000       0.07190000
N       -0.11070000      -0.75390000       1.30930000
C       -0.38770000      -1.97210000       1.34300000
O       -0.44140000      -2.91730000       0.30060000
C       -0.97340000      -3.89580000       1.22690000
C        0.03550000      -4.19790000       2.27370000
C       -0.83290000      -2.93770000       2.38780000
H       -0.73570000       1.74980000       0.69760000
H       -0.47750000       1.61520000      -1.10820000
H        1.97450000       1.05130000      -0.68580000
H        1.67610000       1.19620000       1.11260000
H        0.25070000      -0.77010000      -0.81290000
H       -1.79410000      -4.51100000       0.88510000
H       -0.22940000      -4.97850000       2.98040000
H        1.09240000      -4.11720000       2.04050000
H       -1.46920000      -2.73050000       3.23510000
