15
Properties=species:S:1:pos:R:3 gdb_12916=T pbc="F F F"
O        0.48550000       1.25940000       0.01480000
C       -0.11220000      -0.01490000      -0.06290000
C        0.48310000      -0.72870000      -1.26740000
N        0.14890000      -2.15050000      -1.25240000
H       -0.84360000      -2.28200000      -1.42480000
H        0.63600000      -2.62400000      -2.00610000
C       -1.50060000      -0.23170000       0.42040000
C       -0.54940000      -0.75960000       1.15580000
C       -0.19360000      -1.51100000       2.36460000
O       -0.98270000      -2.17710000       2.99190000
H        0.04660000       1.75660000       0.71280000
H        0.17380000      -0.18570000      -2.17610000
H        1.57240000      -0.63070000      -1.20050000
H       -2.55380000      -0.01330000       0.32330000
H        0.87220000      -1.43910000       2.66030000
