23
Properties=species:S:1:pos:R:3 gdb_83340=T pbc="F F F"
C       -0.18430000       1.58790000       0.88430000
C       -0.08390000       0.10390000       0.56880000
C        0.94370000      -0.39980000      -0.47700000
O        2.19420000       0.12690000       0.00820000
C        2.12080000      -0.20750000       1.41300000
C        0.74390000      -0.88600000       1.47620000
C        0.25910000      -1.38730000       2.81500000
C        0.88150000      -1.79730000       0.19500000
C       -0.25570000      -2.75060000      -0.14870000
H        0.79560000       2.07050000       0.86100000
H       -0.81910000       2.09580000       0.15010000
H       -0.63010000       1.75600000       1.87150000
H       -1.07610000      -0.31120000       0.38290000
H        0.86760000      -0.22820000      -1.55060000
H        2.94110000      -0.88310000       1.68630000
H        2.19480000       0.70010000       2.02420000
H        0.13710000      -0.56160000       3.52580000
H       -0.70730000      -1.89420000       2.72700000
H        0.96870000      -2.09770000       3.25550000
H        1.83500000      -2.33360000       0.13070000
H       -1.24420000      -2.28510000      -0.11690000
H       -0.11880000      -3.15970000      -1.15570000
H       -0.26980000      -3.59740000       0.54650000
