24
Properties=species:S:1:pos:R:3 gdb_88825=T pbc="F F F"
C        0.06250000       1.54940000      -0.41570000
C        0.00680000       0.07280000      -0.08500000
C        1.23160000      -0.77580000      -0.11260000
N        0.54780000      -0.50450000       1.15080000
C        1.21720000       0.33960000       2.11820000
C        0.32270000       1.02450000       3.18080000
C        1.38560000       0.66590000       4.25400000
C        1.98800000      -0.38570000       3.27240000
C        1.54370000      -1.81830000       3.55100000
H        1.03440000       1.99330000      -0.18810000
H       -0.12460000       1.69530000      -1.48500000
H       -0.70420000       2.10780000       0.13260000
H       -0.93040000      -0.39960000      -0.37840000
H        1.20020000      -1.80340000      -0.46610000
H        2.17690000      -0.26410000      -0.29580000
H        1.88680000       1.07980000       1.65260000
H        0.07920000       2.07940000       3.03160000
H       -0.60630000       0.46540000       3.31810000
H        2.07110000       1.49380000       4.45440000
H        1.01770000       0.28350000       5.20970000
H        3.07760000      -0.35440000       3.17230000
H        0.45780000      -1.89120000       3.66110000
H        1.83200000      -2.49070000       2.73760000
H        2.00520000      -2.18310000       4.47550000
