21
Properties=species:S:1:pos:R:3 gdb_118671=T pbc="F F F"
C       -0.63960000       1.61390000       0.29850000
C       -0.37890000       0.17320000      -0.10280000
O       -1.52750000      -0.59950000       0.22010000
C       -1.40990000      -1.96650000      -0.11240000
C       -2.50740000      -2.76390000       0.60970000
O       -3.80190000      -2.55140000       0.09560000
C       -4.47060000      -1.40810000       0.59900000
C       -1.53820000      -2.18280000      -1.62300000
O       -1.11570000      -3.15020000      -2.19810000
H        0.23510000       2.23300000       0.07880000
H       -1.49630000       2.01730000      -0.24870000
H       -0.85310000       1.68030000       1.36900000
H       -0.15790000       0.10640000      -1.18030000
H        0.49730000      -0.22990000       0.43040000
H       -0.43560000      -2.37120000       0.20760000
H       -2.28790000      -3.82730000       0.46860000
H       -2.45820000      -2.53010000       1.68390000
H       -5.49060000      -1.44580000       0.20840000
H       -4.51170000      -1.42500000       1.69860000
H       -3.99030000      -0.47560000       0.28390000
H       -2.08020000      -1.36470000      -2.14820000
