15
Properties=species:S:1:pos:R:3 gdb_54482=T pbc="F F F"
N        0.05940000       0.97230000      -0.79010000
C       -0.03910000       0.05870000       0.20930000
O        0.79680000      -0.10290000       1.08010000
C       -1.27180000      -0.78410000       0.16820000
C       -1.81500000      -1.45080000       1.40020000
C       -1.28620000      -2.31740000       0.28980000
N       -2.24130000      -2.76540000      -0.69360000
C       -2.70490000      -1.71930000      -1.24390000
O       -2.21440000      -0.50210000      -0.86360000
H        0.87540000       1.55930000      -0.82740000
H       -0.66100000       1.06100000      -1.48520000
H       -1.17590000      -1.34670000       2.26880000
H       -2.88560000      -1.42030000       1.57080000
H       -0.39400000      -2.91320000       0.43410000
H       -3.46860000      -1.67980000      -2.01040000
