16
Properties=species:S:1:pos:R:3 gdb_46635=T pbc="F F F"
O        0.02460000      -0.03310000      -0.02890000
C        0.03490000       1.16330000       0.03730000
O       -1.10010000       1.94570000      -0.00920000
C       -0.75940000       3.34450000       0.05120000
C        0.74280000       3.34930000       0.03180000
C        1.79440000       4.15230000      -0.11400000
C        3.06330000       3.31020000      -0.03370000
C        2.54000000       1.83410000      -0.02360000
N        1.10270000       2.01210000       0.17860000
H       -1.20630000       3.85920000      -0.80420000
H       -1.17370000       3.76970000       0.97260000
H        1.78030000       5.22450000      -0.23650000
H        3.74000000       3.48730000      -0.87600000
H        3.63500000       3.52970000       0.87680000
H        2.72470000       1.32260000      -0.97440000
H        2.97660000       1.23160000       0.77530000
