17
Properties=species:S:1:pos:R:3 gdb_56622=T pbc="F F F"
C       -0.35650000       1.51210000      -0.21260000
C       -0.25850000      -0.00250000       0.04100000
C        0.63410000      -0.29870000       1.17070000
N        1.34600000      -0.50200000       2.05780000
N       -1.57140000      -0.62980000       0.23040000
C       -2.18300000      -1.21100000      -0.87380000
N       -1.62130000      -1.20360000      -2.01560000
C       -2.22830000      -0.55720000       1.45590000
N       -3.42000000      -0.96690000       1.61560000
H        0.63740000       1.93160000      -0.38850000
H       -0.97340000       1.68000000      -1.09760000
H       -0.80450000       2.02630000       0.64170000
H        0.15740000      -0.47770000      -0.85290000
H       -3.15070000      -1.64040000      -0.61520000
H       -2.19770000      -1.69020000      -2.69810000
H       -1.59330000      -0.12770000       2.23600000
H       -3.70690000      -0.85390000       2.58460000
