14
Properties=species:S:1:pos:R:3 gdb_21556=T pbc="F F F"
N        0.03460000       1.39440000       0.16570000
C       -0.03690000       0.01800000       0.06090000
C       -1.20070000      -0.68810000       0.03680000
C       -1.19890000      -2.13170000      -0.00390000
N       -2.27630000      -2.83300000      -0.02230000
N        0.10160000      -2.67350000      -0.02920000
N        1.26420000      -2.01200000      -0.01270000
C        1.20760000      -0.71980000       0.03340000
H        0.86540000       1.82740000      -0.20790000
H       -0.80770000       1.90160000      -0.06010000
H       -2.17180000      -0.20770000       0.05080000
H       -2.07260000      -3.83310000      -0.05590000
H        0.20260000      -3.67690000      -0.06250000
H        2.16030000      -0.20020000       0.05640000
