12
Properties=species:S:1:pos:R:3 gdb_2736=T pbc="F F F"
O       -0.05980000      -0.01330000      -0.07810000
C       -0.05560000       1.17010000       0.02930000
C       -1.10940000       2.26840000       0.21750000
N       -0.00790000       3.21860000       0.51570000
C        1.05470000       2.27170000       0.06100000
C        2.19610000       2.09470000       0.93370000
C        3.14180000       1.91740000       1.65360000
H       -1.67270000       2.45180000      -0.70860000
H       -1.81960000       2.12160000       1.03800000
H       -0.03770000       4.07920000      -0.01770000
H        1.39440000       2.44770000      -0.97270000
H        3.97460000       1.76600000       2.29510000
