17
Properties=species:S:1:pos:R:3 gdb_38888=T pbc="F F F"
C       -0.03220000       1.53020000       0.03310000
C        1.30120000       0.81040000      -0.00910000
N        2.16080000       0.84060000       1.17360000
C        2.13520000      -0.45880000       1.81790000
C        2.18100000      -0.62920000       3.35850000
O        0.83120000      -1.22340000       3.33130000
C        0.69490000      -0.84220000       2.02630000
N       -0.34010000      -0.63030000       1.34720000
C        0.00510000       0.02210000       0.09840000
H       -0.25920000       2.04390000       0.96060000
H       -0.40480000       2.00490000      -0.86860000
H        1.81850000       0.77060000      -0.96570000
H        3.09640000       1.13730000       0.92600000
H        2.72090000      -1.24330000       1.31550000
H        2.91080000      -1.33020000       3.76730000
H        2.16840000       0.31100000       3.91410000
H       -0.32940000      -0.51730000      -0.78250000
