23
Properties=species:S:1:pos:R:3 gdb_63946=T pbc="F F F"
C       -0.09740000       1.55070000       0.01420000
C       -0.01990000       0.01880000      -0.00690000
C       -1.44440000      -0.55640000      -0.02760000
C        0.85040000      -0.52320000      -1.20380000
C        2.00710000      -1.27810000      -0.50540000
C        2.86850000      -0.24200000       0.23150000
O        2.02580000       0.20460000       1.31200000
C        0.80000000      -0.53590000       1.19730000
C        1.28480000      -1.90660000       0.70560000
H        0.89620000       1.99830000       0.07440000
H       -0.59540000       1.92320000      -0.88790000
H       -0.67190000       1.90280000       0.87890000
H       -1.97810000      -0.22050000      -0.92370000
H       -1.45550000      -1.65030000      -0.03200000
H       -2.01740000      -0.21880000       0.84350000
H        0.27100000      -1.20220000      -1.83800000
H        1.21850000       0.28530000      -1.84330000
H        2.57630000      -1.94870000      -1.15100000
H        3.78800000      -0.67650000       0.64600000
H        3.14400000       0.61080000      -0.40190000
H        0.28840000      -0.48710000       2.16060000
H        0.48650000      -2.59790000       0.42970000
H        1.95670000      -2.39080000       1.41900000
