18
Properties=species:S:1:pos:R:3 gdb_311=T pbc="F F F"
C       -0.08930000       1.58670000       0.01470000
C        0.04900000       0.07250000       0.01780000
C        1.11940000      -0.59450000      -0.89170000
C        1.40030000      -1.61790000       0.24490000
C        2.83010000      -2.06510000       0.50510000
C        0.72280000      -0.62630000       1.23250000
H        0.87700000       2.06910000       0.20220000
H       -0.46170000       1.95200000      -0.94930000
H       -0.78620000       1.92590000       0.78970000
H       -0.92770000      -0.38840000      -0.17140000
H        0.80490000      -0.97690000      -1.86670000
H        1.97780000       0.07160000      -1.04090000
H        0.75680000      -2.49550000       0.11160000
H        3.49220000      -1.20220000       0.64160000
H        2.89760000      -2.68220000       1.40840000
H        3.22230000      -2.65610000      -0.33060000
H        1.46600000       0.03070000       1.70060000
H        0.07980000      -1.03500000       2.01700000
