12
Properties=species:S:1:pos:R:3 gdb_132030=T pbc="F F F"
N        0.01630000       1.42630000       0.16200000
C       -0.03540000       0.05030000       0.05880000
C       -1.15340000      -0.69710000       0.02890000
F       -2.38070000      -0.21620000       0.02830000
O       -1.15720000      -2.04490000      -0.00970000
C        0.05590000      -2.64920000      -0.01690000
N        1.19050000      -2.07660000      -0.00930000
C        1.25170000      -0.66950000       0.00860000
O        2.30340000      -0.06260000      -0.02450000
H        0.93300000       1.77220000      -0.09410000
H       -0.75090000       1.93900000      -0.24540000
H       -0.06190000      -3.72720000      -0.03360000
