17
Properties=species:S:1:pos:R:3 gdb_7295=T pbc="F F F"
C       -0.38500000       1.33290000       0.12300000
N       -0.12000000      -0.08180000      -0.05870000
C       -0.06100000      -0.88830000       1.15880000
C       -1.33280000      -0.93040000       1.87960000
C       -2.37460000      -0.95120000       2.47850000
C        0.13940000      -0.70410000      -1.25870000
C        0.09430000       0.15340000      -2.51550000
O        0.39550000      -1.89520000      -1.32330000
H       -0.53330000       1.82810000      -0.83390000
H       -1.29060000       1.46910000       0.72430000
H        0.44640000       1.82860000       0.64390000
H        0.23840000      -1.89200000       0.84760000
H        0.72110000      -0.49360000       1.82370000
H       -3.29540000      -0.98870000       3.00620000
H        0.81880000       0.97270000      -2.47930000
H        0.33410000      -0.49720000      -3.35550000
H       -0.89720000       0.58870000      -2.67450000
