19
Properties=species:S:1:pos:R:3 gdb_66451=T pbc="F F F"
C       -0.01050000       1.44530000       0.02900000
C        0.01450000      -0.05130000      -0.02870000
C       -0.94000000      -0.96930000       0.73900000
C        0.55660000      -1.07510000       0.94660000
C        0.57960000      -2.10690000      -0.22960000
C        1.49990000      -3.26670000      -0.45800000
C       -0.99040000      -2.14310000      -0.27100000
O       -1.03120000      -1.58130000      -1.60310000
C        0.23670000      -0.97740000      -1.26050000
H        0.94520000       1.87610000      -0.29060000
H       -0.79510000       1.85010000      -0.62070000
H       -0.20660000       1.79840000       1.04700000
H       -1.70460000      -0.58990000       1.40370000
H        1.15830000      -0.96260000       1.83780000
H        1.43840000      -3.99220000       0.36100000
H        1.23960000      -3.78320000      -1.38850000
H        2.54300000      -2.93890000      -0.53330000
H       -1.64110000      -3.00490000      -0.12380000
H        0.83040000      -0.65400000      -2.11620000
