16
Properties=species:S:1:pos:R:3 gdb_124984=T pbc="F F F"
C        0.12670000       1.51680000      -0.16410000
C        0.04840000       0.02730000      -0.03550000
C       -0.02250000      -0.91550000      -1.02030000
C       -0.00900000      -0.82660000      -2.51220000
C        1.38590000      -0.45080000      -3.00350000
O        1.64170000       0.57490000      -3.57590000
O       -0.07830000      -2.15090000      -0.48210000
N       -0.05540000      -2.04750000       0.90370000
C        0.01760000      -0.76350000       1.14950000
H        0.95050000       1.92320000       0.43160000
H        0.29250000       1.81640000      -1.20180000
H       -0.79360000       1.99990000       0.18320000
H       -0.28110000      -1.80500000      -2.92330000
H       -0.71580000      -0.07600000      -2.87440000
H        2.17240000      -1.19980000      -2.76590000
H        0.04910000      -0.42920000       2.17790000
