19
Properties=species:S:1:pos:R:3 gdb_71044=T pbc="F F F"
C        0.09870000       1.42160000      -0.11110000
C       -0.04210000      -0.08480000      -0.00330000
C       -0.08390000      -0.93300000      -1.35610000
C       -0.90500000      -1.87760000      -0.47120000
C       -0.15670000      -2.77010000       0.22120000
C        0.13110000      -2.18580000       1.54210000
C       -0.79790000      -1.04230000       1.85130000
C        0.57600000      -0.68940000       1.31310000
C       -1.37700000      -0.74450000       0.46390000
H        1.13090000       1.70810000      -0.34540000
H       -0.54620000       1.81510000      -0.90410000
H       -0.17840000       1.91150000       0.82820000
H       -0.62600000      -0.35280000      -2.11330000
H        0.84060000      -1.33030000      -1.78040000
H        0.56610000      -3.42280000      -0.26080000
H        0.63190000      -2.70400000       2.35310000
H       -1.23900000      -0.86370000       2.82230000
H        1.43810000      -0.29980000       1.83940000
H       -2.34140000      -0.26750000       0.29830000
