17
Properties=species:S:1:pos:R:3 gdb_10640=T pbc="F F F"
C       -0.39750000       1.32880000       0.04960000
N        0.32950000       0.07060000      -0.07050000
C        0.80290000      -0.47630000       1.16360000
C       -0.16320000      -1.02510000       2.22470000
C        0.64170000      -1.98020000       1.39390000
N       -0.04380000      -2.70620000       0.35970000
C        2.02330000       0.12420000       1.65840000
N        2.99080000       0.60480000       2.07240000
H        0.27330000       2.10690000       0.42810000
H       -0.73960000       1.63700000      -0.94190000
H       -1.27120000       1.28150000       0.72180000
H       -0.22240000      -0.64520000      -0.53290000
H        0.08540000      -0.91470000       3.27360000
H       -1.21500000      -0.92280000       1.98030000
H        1.48320000      -2.45890000       1.89300000
H        0.61480000      -3.18750000      -0.24370000
H       -0.66270000      -3.40390000       0.75890000
