15
Properties=species:S:1:pos:R:3 gdb_124319=T pbc="F F F"
C        0.03820000       1.49530000      -0.02810000
C        0.00840000      -0.01380000       0.08900000
O       -0.02700000      -0.60450000       1.13550000
C        0.02480000      -0.76510000      -1.25690000
N        0.05680000      -2.19540000      -1.08480000
N        1.16770000      -2.87230000      -0.82130000
C        0.68800000      -4.09840000      -0.66370000
N       -0.65440000      -4.16100000      -0.82140000
N       -1.04390000      -2.94020000      -1.08300000
H        0.97100000       1.81830000      -0.50470000
H       -0.78400000       1.85130000      -0.65880000
H       -0.03710000       1.94080000       0.96390000
H       -0.87660000      -0.51890000      -1.82470000
H        0.89570000      -0.46210000      -1.84460000
H        1.30670000      -4.95200000      -0.44070000
