21
Properties=species:S:1:pos:R:3 gdb_41353=T pbc="F F F"
C        0.02470000       1.55410000       0.27650000
C        1.55500000       1.43660000      -0.07740000
C        1.16690000       0.22030000      -0.95890000
C        0.54770000       0.63870000      -2.33260000
C       -0.83640000      -0.07860000      -2.35710000
C       -0.76650000      -0.88500000      -1.05910000
O        0.28810000      -1.88460000      -1.22500000
C        1.59440000      -1.22930000      -1.10200000
C       -0.07170000       0.03340000      -0.06010000
H       -0.23310000       1.83850000       1.29820000
H       -0.51270000       2.20630000      -0.41440000
H        2.03880000       2.28480000      -0.56800000
H        2.13930000       1.15180000       0.80220000
H        0.44430000       1.72280000      -2.41720000
H        1.19530000       0.31710000      -3.15260000
H       -1.67200000       0.63020000      -2.34440000
H       -0.96400000      -0.73680000      -3.21930000
H       -1.66810000      -1.42690000      -0.77040000
H        2.17980000      -1.46520000      -1.99810000
H        2.11690000      -1.62080000      -0.21990000
H        0.17770000      -0.53620000       0.84050000
