21
Properties=species:S:1:pos:R:3 gdb_65784=T pbc="F F F"
O        0.09580000       1.31560000       0.02340000
C        0.05950000      -0.11840000       0.00610000
C        0.84400000      -0.51150000      -1.25410000
C        2.28950000      -0.06130000      -1.21730000
O        3.23080000      -0.79090000      -1.40680000
C        0.64870000      -0.69640000       1.31410000
C       -0.54010000      -0.70690000       2.28490000
C       -1.69980000      -1.21200000       1.40410000
C       -1.41410000      -0.63470000      -0.00650000
H       -0.30520000       1.62020000       0.84380000
H        0.81840000      -1.59300000      -1.40860000
H        0.36420000      -0.02200000      -2.11290000
H        2.42950000       1.01830000      -1.00050000
H        0.98870000      -1.72460000       1.14050000
H        1.50970000      -0.11580000       1.65670000
H       -0.37020000      -1.32630000       3.16930000
H       -0.74680000       0.30860000       2.65060000
H       -1.67890000      -2.30670000       1.37290000
H       -2.68250000      -0.92530000       1.78760000
H       -2.06400000       0.21040000      -0.25010000
H       -1.56710000      -1.38660000      -0.78580000
