19
Properties=species:S:1:pos:R:3 gdb_35764=T pbc="F F F"
N       -0.07540000      -1.15210000      -0.44580000
C       -0.05700000      -0.02190000      -0.20550000
C       -0.00660000       1.42750000       0.08520000
N       -0.67030000       1.72760000       1.36220000
C        0.23480000       1.89280000       2.51380000
C        1.64350000       2.35700000       2.09990000
C        1.54530000       3.26020000       0.83650000
C        1.46010000       1.93090000       0.03470000
C        2.27060000       1.27250000       1.18200000
H       -0.57930000       1.92150000      -0.70850000
H       -1.22690000       2.56140000       1.24390000
H       -0.23100000       2.61320000       3.19410000
H        0.31590000       0.94400000       3.06120000
H        2.21750000       2.70650000       2.96110000
H        0.71550000       3.96990000       0.76100000
H        2.48360000       3.78210000       0.63590000
H        1.85170000       1.88420000      -0.98330000
H        3.34520000       1.41430000       1.04490000
H        2.07050000       0.22220000       1.41310000
