16
Properties=species:S:1:pos:R:3 gdb_105574=T pbc="F F F"
C        0.01930000       1.40170000      -0.07370000
O       -0.08190000      -0.01410000       0.06230000
C        0.61010000      -0.54400000       1.16400000
C        0.72430000      -2.09810000       1.03840000
N        2.17660000      -1.92620000       0.94440000
C        2.18590000      -0.55970000       0.98040000
O        3.04560000       0.26990000       0.86820000
C        0.15100000      -0.04810000       2.45370000
C       -0.21320000       0.36600000       3.52200000
H        1.06330000       1.71770000      -0.17210000
H       -0.53110000       1.65690000      -0.98110000
H       -0.43360000       1.91510000       0.78330000
H        0.39010000      -2.66480000       1.91010000
H        0.24900000      -2.46460000       0.12510000
H        2.91370000      -2.58360000       0.73760000
H       -0.53200000       0.73470000       4.46600000
