18
Properties=species:S:1:pos:R:3 gdb_26122=T pbc="F F F"
C        0.02600000       1.68480000      -0.11210000
C       -0.41290000       0.73310000       0.95080000
N        1.28850000      -0.87500000      -1.97820000
H        1.70920000      -0.81790000      -1.05380000
H        0.89180000      -1.80840000      -2.04840000
H        2.05850000      -0.84920000      -2.64150000
C        0.36150000      -0.11850000       1.62040000
C       -0.02940000      -1.08710000       2.69240000
O       -1.15000000      -1.26710000       3.12800000
C        1.24630000      -1.72280000       3.05520000
C        2.18950000      -1.17230000       2.27320000
O        1.73510000      -0.22500000       1.40320000
H        1.08060000       1.94870000      -0.00070000
H       -0.08370000       1.21770000      -1.09950000
H       -0.57600000       2.59760000      -0.09340000
H       -1.46490000       0.68500000       1.22110000
H        1.38730000      -2.48350000       3.80580000
H        3.25440000      -1.35050000       2.21160000
