20
Properties=species:S:1:pos:R:3 gdb_73131=T pbc="F F F"
C        0.31720000       1.56100000      -0.06000000
C        0.01550000       0.08030000       0.05590000
O       -1.31270000      -0.16310000       0.58220000
C       -0.80280000      -1.08930000       1.56710000
C        0.66140000      -0.76420000       1.19660000
C        1.57700000      -1.83500000       0.57260000
C        1.26010000      -1.81500000      -0.91710000
N       -0.15930000      -2.08720000      -1.19660000
C        0.32660000      -0.69350000      -1.22370000
H        1.34380000       1.72380000      -0.40720000
H       -0.36420000       2.03370000      -0.77590000
H        0.19180000       2.05660000       0.90630000
H       -1.11280000      -0.80630000       2.58030000
H       -1.11300000      -2.11770000       1.35640000
H        1.17210000      -0.17780000       1.96270000
H        2.62990000      -1.57390000       0.72750000
H        1.41900000      -2.82790000       1.00770000
H        2.01020000      -2.14370000      -1.63060000
H       -0.26730000      -2.42100000      -2.15080000
H        0.35380000      -0.16830000      -2.17400000
