21
Properties=species:S:1:pos:R:3 gdb_77931=T pbc="F F F"
C       -0.18510000       1.56280000       0.01470000
C       -0.04520000       0.02610000       0.00040000
C       -1.48440000      -0.51980000      -0.10810000
C        1.13730000      -0.55700000      -0.87540000
C        2.14290000      -0.13590000       0.27010000
O        2.58870000       1.17720000       0.48410000
C        0.91390000      -0.73440000       1.00400000
C        1.06740000      -1.88270000      -0.07240000
O        0.09880000      -2.86780000      -0.31760000
H        0.70840000       2.09500000      -0.30470000
H       -0.99160000       1.85220000      -0.66830000
H       -0.48110000       1.92370000       1.00860000
H       -1.85140000      -0.46460000      -1.14150000
H       -1.60410000      -1.53760000       0.25740000
H       -2.15060000       0.11470000       0.48710000
H        1.28320000      -0.44920000      -1.95340000
H        3.03930000      -0.76290000       0.28580000
H        2.01000000       1.61260000       1.11330000
H        0.78790000      -0.85470000       2.08310000
H        2.01860000      -2.41480000       0.02220000
H       -0.48810000      -2.57200000      -1.01640000
