17
Properties=species:S:1:pos:R:3 gdb_46731=T pbc="F F F"
N       -0.08100000       1.25650000       0.27160000
C       -0.01120000       0.03370000      -0.03060000
O        1.13990000      -0.60790000      -0.41510000
C        0.88480000      -1.94030000      -0.91110000
C       -0.56160000      -2.27260000      -0.53080000
C       -0.85750000      -2.85630000       0.85630000
C       -0.26880000      -2.06290000       1.95280000
N       -1.51740000      -1.56950000       1.33980000
C       -1.15390000      -0.95000000      -0.00560000
H        0.83250000       1.70470000       0.17720000
H        1.03520000      -1.93340000      -1.99640000
H        1.61940000      -2.61150000      -0.45740000
H       -1.11470000      -2.75780000      -1.33380000
H       -1.32590000      -3.82040000       1.02540000
H       -0.43610000      -2.42950000       2.96090000
H        0.66150000      -1.51740000       1.82570000
H       -2.05170000      -0.55420000      -0.47570000
