16
Properties=species:S:1:pos:R:3 gdb_18545=T pbc="F F F"
O        0.06980000       0.20670000      -0.97990000
C        0.04420000       1.20190000      -0.31840000
C       -1.06620000       1.96030000       0.43090000
C       -0.06760000       3.13700000       0.66110000
C        0.32080000       3.42810000       2.12530000
C        1.50070000       2.51490000       2.36220000
C        1.92720000       1.91290000       1.25050000
C        1.09740000       2.27490000       0.04610000
H       -1.94740000       2.17350000      -0.18070000
H       -1.39650000       1.45590000       1.34510000
H       -0.33140000       4.03110000       0.09640000
H        0.59660000       4.47910000       2.28400000
H       -0.51100000       3.22500000       2.81270000
H        1.94980000       2.38950000       3.34170000
H        2.75980000       1.22180000       1.18720000
H        1.68060000       2.65280000      -0.79980000
