12
Properties=species:S:1:pos:R:3 gdb_24759=T pbc="F F F"
O        0.05640000      -0.06880000       0.00260000
C       -0.01110000       1.13200000       0.00730000
C        1.19240000       1.97660000       0.00110000
N        2.16300000       2.60290000      -0.00400000
N       -1.20160000       1.84750000       0.01820000
C       -2.47670000       1.28310000       0.02550000
C       -3.33260000       2.33710000       0.03510000
N       -2.64130000       3.54610000       0.03410000
C       -1.38410000       3.23120000       0.02410000
H       -2.60580000       0.21530000       0.02290000
H       -4.41120000       2.31520000       0.04280000
H       -0.54590000       3.91130000       0.02030000
