21
Properties=species:S:1:pos:R:3 gdb_112050=T pbc="F F F"
O        0.09120000       1.46940000      -0.00980000
C        0.06100000       0.05650000       0.12070000
C       -1.36890000      -0.51890000       0.06270000
C       -2.03000000      -0.23140000      -1.26890000
C       -2.16450000      -1.32430000      -2.01910000
C       -1.65440000      -2.56010000      -1.31920000
C       -1.41420000      -2.05910000       0.11380000
C       -0.61340000      -2.86800000       1.10130000
C       -2.10950000      -2.75200000       1.25950000
H       -0.17460000       1.68390000      -0.90940000
H        0.68470000      -0.43170000      -0.64420000
H        0.51080000      -0.15790000       1.09520000
H       -1.92940000      -0.07120000       0.89340000
H       -2.32800000       0.76870000      -1.56610000
H       -2.57570000      -1.34950000      -3.02250000
H       -2.36890000      -3.39200000      -1.35450000
H       -0.73270000      -2.92830000      -1.79390000
H       -0.20480000      -3.81630000       0.76670000
H        0.01500000      -2.34880000       1.81710000
H       -2.48840000      -2.14060000       2.07250000
H       -2.71850000      -3.62210000       1.03530000
