16
Properties=species:S:1:pos:R:3 gdb_46572=T pbc="F F F"
O       -0.12030000      -0.08830000      -0.08110000
C       -0.00730000       1.11020000       0.00950000
N       -1.06710000       2.00980000       0.04560000
C       -0.75350000       3.41240000       0.35440000
C        0.71130000       3.25180000       0.67750000
C        2.13820000       3.83510000       0.77150000
C        2.14560000       2.32280000       1.19800000
O        0.93860000       2.58350000       1.99490000
C        1.24400000       1.99210000      -0.02010000
H       -2.00480000       1.64630000       0.11920000
H       -0.92890000       4.07370000      -0.50350000
H       -1.32520000       3.78060000       1.21240000
H        2.63580000       4.11830000      -0.15910000
H        2.31520000       4.53550000       1.58790000
H        2.94790000       1.74740000       1.65800000
H        1.67910000       2.08210000      -1.01900000
