14
Properties=species:S:1:pos:R:3 gdb_11216=T pbc="F F F"
O       -0.30770000       0.12740000       0.08830000
C       -0.07790000       1.30660000       0.12950000
C        1.30630000       1.91510000       0.01090000
C        1.35850000       2.93470000      -1.15720000
O        1.11470000       4.22600000      -0.59160000
C        1.29610000       4.22650000       0.75940000
O        1.19850000       5.21640000       1.41950000
C        1.62780000       2.80990000       1.22110000
H       -0.89810000       2.05180000       0.25850000
H        2.01910000       1.10170000      -0.13050000
H        2.34290000       2.93270000      -1.63720000
H        0.59880000       2.75650000      -1.92320000
H        1.06520000       2.57410000       2.12700000
H        2.69020000       2.77000000       1.48030000
