20
Properties=species:S:1:pos:R:3 gdb_32433=T pbc="F F F"
C        0.06400000       1.41670000       0.05860000
N       -0.08720000      -0.02410000      -0.01560000
C        0.57640000      -0.67960000      -1.06360000
C        1.16350000      -0.11230000      -2.17770000
N        1.62510000      -1.14710000      -2.96490000
C        1.35480000      -2.34930000      -2.36990000
N        1.75560000      -3.53910000      -3.02820000
C        0.69710000      -2.10140000      -1.17870000
C        0.19040000      -3.11260000      -0.19930000
H        1.11490000       1.75320000       0.08580000
H       -0.40840000       1.87960000      -0.81550000
H       -0.44600000       1.79090000       0.94990000
H        0.08290000      -0.47140000       0.87540000
H        1.28040000       0.91520000      -2.47570000
H        2.09530000      -1.06540000      -3.84860000
H        2.39260000      -4.08760000      -2.45940000
H        0.96250000      -4.13480000      -3.24400000
H        0.70550000      -3.05720000       0.77030000
H       -0.87980000      -2.98200000       0.00380000
H        0.33490000      -4.12940000      -0.57830000
