16
Properties=species:S:1:pos:R:3 gdb_102344=T pbc="F F F"
C       -0.10090000       1.40460000       0.02940000
O       -0.01320000      -0.01890000      -0.03440000
C        0.64490000      -0.55100000      -1.15670000
C        0.56790000      -2.09200000      -1.00550000
N       -0.82180000      -2.49940000      -1.02140000
C        0.00060000      -0.12250000      -2.42530000
N       -0.48990000       0.24030000      -3.40540000
C        2.07200000      -0.13450000      -1.18680000
N        3.18630000       0.16820000      -1.16770000
H        0.89590000       1.86080000       0.06110000
H       -0.66160000       1.80600000      -0.82260000
H       -0.63260000       1.62790000       0.95480000
H        1.09230000      -2.54430000      -1.85160000
H        1.12950000      -2.33200000      -0.08950000
H       -0.90060000      -3.50220000      -1.13800000
H       -1.27650000      -2.24400000      -0.15260000
