19
Properties=species:S:1:pos:R:3 gdb_126496=T pbc="F F F"
C       -0.05880000       1.57550000       0.12900000
C        0.30910000       0.09010000       0.20910000
C        0.63540000      -0.50280000      -1.15200000
C        0.74140000      -2.08210000      -1.27840000
C       -0.44360000      -1.96880000      -2.22880000
C       -1.42840000      -2.31670000      -3.13550000
C       -2.01220000      -1.05720000      -3.44860000
N       -1.44500000      -0.01760000      -2.80980000
N       -0.50870000      -0.63920000      -2.08140000
H        0.77420000       2.16840000      -0.26450000
H       -0.91800000       1.72640000      -0.53110000
H       -0.31200000       1.96920000       1.11750000
H        1.18170000      -0.05280000       0.85910000
H       -0.51600000      -0.48000000       0.65300000
H        1.47500000       0.02430000      -1.61920000
H        1.67450000      -2.44110000      -1.71860000
H        0.55410000      -2.61450000      -0.34250000
H       -1.70470000      -3.28330000      -3.52140000
H       -2.83630000      -0.87020000      -4.12260000
