15
Properties=species:S:1:pos:R:3 gdb_25674=T pbc="F F F"
C       -0.01810000       1.48090000       0.01050000
C        0.00250000       0.02730000       0.00260000
C        0.01880000      -1.17930000      -0.00390000
C        0.03780000      -2.59830000      -0.01160000
C        1.23220000      -3.33530000      -0.02270000
N        1.25910000      -4.66530000      -0.02990000
C        0.07330000      -5.27770000      -0.02610000
N       -1.12830000      -4.69710000      -0.01580000
C       -1.13670000      -3.36680000      -0.00870000
H        0.99750000       1.89070000       0.00300000
H       -0.54370000       1.87380000      -0.86690000
H       -0.52690000       1.86450000       0.90170000
H        2.18940000      -2.81970000      -0.02560000
H        0.08770000      -6.36460000      -0.03200000
H       -2.10710000      -2.87670000      -0.00030000
