15
Properties=species:S:1:pos:R:3 gdb_2938=T pbc="F F F"
C        0.00310000       1.32120000      -0.20920000
O       -0.05360000      -0.09090000      -0.12030000
C       -1.33660000      -0.58250000       0.16810000
O       -2.25290000      -0.38320000      -0.89930000
C       -2.52370000      -1.62260000      -1.54840000
C       -1.90480000      -2.66610000      -0.66290000
C       -1.25260000      -2.07680000       0.33090000
H        1.04810000       1.58990000      -0.37880000
H       -0.60770000       1.69640000      -1.03910000
H       -0.34070000       1.79600000       0.72280000
H       -1.73750000      -0.04170000       1.04210000
H       -3.61210000      -1.73570000      -1.64690000
H       -2.09780000      -1.63900000      -2.56370000
H       -1.98800000      -3.72860000      -0.85280000
H       -0.68270000      -2.54300000       1.12250000
