23
Properties=species:S:1:pos:R:3 gdb_93856=T pbc="F F F"
C        0.24460000       1.66170000      -0.09580000
C        0.04130000       0.14630000       0.05630000
C        0.65570000      -0.63990000      -1.12400000
C        2.11870000      -0.85650000      -0.70280000
C        2.03430000      -1.18480000       0.80250000
C        3.31860000      -0.89850000       1.58040000
C        0.77100000      -0.43870000       1.27810000
C        0.58270000       0.09130000       2.63550000
O       -0.03460000      -1.13550000       2.24330000
H        1.30450000       1.92370000      -0.18250000
H       -0.26120000       2.02660000      -0.99590000
H       -0.16090000       2.21030000       0.75950000
H       -1.02850000      -0.05650000       0.16280000
H        0.15460000      -1.60940000      -1.22660000
H        0.55400000      -0.11620000      -2.07910000
H        2.61910000      -1.64510000      -1.27200000
H        2.69900000       0.06240000      -0.85420000
H        1.79700000      -2.25150000       0.90740000
H        3.56500000       0.16910000       1.56190000
H        3.23680000      -1.20900000       2.62670000
H        4.16260000      -1.44310000       1.14380000
H        1.37720000       0.00270000       3.37490000
H       -0.09960000       0.92470000       2.80320000
