23
Properties=species:S:1:pos:R:3 gdb_57197=T pbc="F F F"
C        0.44720000       1.39340000       0.02500000
N       -0.02190000       0.00940000       0.02370000
C       -0.06650000      -0.69740000       1.21070000
N       -0.20940000       0.07890000       2.36690000
O        0.02900000      -1.91220000       1.29770000
C       -0.00990000      -0.73900000      -1.27520000
C       -0.24090000       0.25040000      -2.43390000
C        1.34260000      -1.45210000      -1.46220000
C       -1.17070000      -1.75340000      -1.31570000
H        1.35680000       1.49990000      -0.57700000
H       -0.30090000       2.09100000      -0.36850000
H        0.70560000       1.69100000       1.03950000
H       -0.82070000       0.88050000       2.31200000
H       -0.40320000      -0.51490000       3.16030000
H        0.57430000       0.96680000      -2.55830000
H       -0.31660000      -0.31830000      -3.36440000
H       -1.17570000       0.80540000      -2.30640000
H        1.49970000      -2.17250000      -0.65860000
H        1.36730000      -1.97900000      -2.42190000
H        2.16880000      -0.73240000      -1.45710000
H       -2.12690000      -1.24190000      -1.16350000
H       -1.19650000      -2.22960000      -2.30090000
H       -1.05940000      -2.52200000      -0.55480000
