19
Properties=species:S:1:pos:R:3 gdb_85204=T pbc="F F F"
C       -0.18920000       1.57810000      -0.10240000
C       -0.01480000       0.06550000      -0.01520000
C        1.11480000      -0.48990000      -0.94320000
C        1.99360000      -0.61440000       0.30810000
O        3.17550000      -0.66220000       0.49970000
C        0.78270000      -0.45570000       1.24150000
C        0.92750000       0.38210000       2.51570000
C        1.82730000      -0.30030000       3.53100000
O        1.48570000      -0.58050000       4.65170000
H        0.76970000       2.10250000      -0.01900000
H       -0.63070000       1.85620000      -1.06460000
H       -0.84590000       1.95400000       0.68850000
H       -0.97960000      -0.42990000      -0.14190000
H        0.88480000      -1.47010000      -1.37270000
H        1.49240000       0.16130000      -1.73590000
H        0.41760000      -1.45890000       1.49830000
H        1.38270000       1.35020000       2.26880000
H       -0.04400000       0.56620000       2.98420000
H        2.84620000      -0.53400000       3.15660000
