17
Properties=species:S:1:pos:R:3 gdb_36374=T pbc="F F F"
N        0.03370000      -0.72760000      -1.26900000
C       -0.01150000       0.27200000      -0.69100000
C       -0.04240000       1.53130000       0.05230000
C        1.36140000       2.07140000       0.28510000
N        1.90880000       2.94000000      -0.76080000
C        1.65240000       3.50840000       0.56460000
C        0.62600000       4.59820000       0.68090000
C        0.37260000       5.53970000      -0.41940000
O       -0.56120000       4.50330000      -0.10270000
H       -0.62600000       2.27260000      -0.49730000
H       -0.54570000       1.35720000       1.01060000
H        2.03930000       1.35340000       0.74340000
H        2.89870000       2.76860000      -0.90830000
H        2.50910000       3.68700000       1.21510000
H        0.45610000       4.94070000       1.70290000
H        0.03380000       6.55080000      -0.20160000
H        0.90980000       5.39710000      -1.35370000
