19
Properties=species:S:1:pos:R:3 gdb_31563=T pbc="F F F"
C       -0.54790000       0.57250000       0.44390000
O        0.51670000       0.88250000      -0.43690000
C        0.80580000      -0.08160000      -1.33970000
C        0.29090000      -1.33250000      -1.58690000
C        1.04610000      -1.86640000      -2.68510000
N        0.77040000      -3.10940000      -3.29870000
C        1.98760000      -0.93640000      -3.06070000
C        3.01860000      -0.94160000      -4.13690000
N        1.81020000       0.16930000      -2.22310000
H       -1.48060000       0.40120000      -0.10860000
H       -0.32010000      -0.32040000       1.04030000
H       -0.66630000       1.43280000       1.10430000
H       -0.52930000      -1.81190000      -1.07840000
H        0.65700000      -3.84740000      -2.61260000
H        1.50530000      -3.38740000      -3.93810000
H        3.17870000      -1.95920000      -4.50750000
H        2.74780000      -0.32480000      -5.00570000
H        3.99080000      -0.58170000      -3.77490000
H        2.36220000       1.00840000      -2.22410000
