15
Properties=species:S:1:pos:R:3 gdb_31187=T pbc="F F F"
O       -0.12090000       1.40490000      -0.34190000
C        0.01640000       0.05700000       0.09320000
C       -1.34180000      -0.56750000       0.04120000
C       -1.80910000      -1.87210000      -0.01790000
C       -0.98570000      -3.07490000      -0.10700000
O       -1.38790000      -4.21430000      -0.13690000
N       -3.19300000      -1.88260000       0.01230000
C       -3.54730000      -0.62950000       0.08400000
N       -2.46100000       0.20840000       0.11460000
H        0.70610000       1.86460000      -0.17080000
H        0.71260000      -0.50840000      -0.54140000
H        0.40920000       0.01840000       1.12180000
H        0.10850000      -2.85610000      -0.15060000
H       -4.55950000      -0.25380000       0.11290000
H       -2.44230000       1.21620000       0.11540000
