16
Properties=species:S:1:pos:R:3 gdb_126008=T pbc="F F F"
C       -0.11430000       1.49210000       0.13320000
C        0.14460000      -0.01370000       0.07220000
C        0.92090000      -0.45820000      -1.20130000
N        1.75040000      -1.56660000      -0.75220000
C        2.01260000      -1.55160000       0.60810000
C        1.04870000      -0.57260000       1.14940000
N        0.95770000      -0.32580000       2.41300000
N        0.89670000      -0.11090000       3.52800000
O        2.84070000      -2.21650000       1.19060000
H        0.82530000       2.05300000       0.11180000
H       -0.72620000       1.81120000      -0.71700000
H       -0.65160000       1.76370000       1.04710000
H       -0.82130000      -0.53780000       0.09170000
H        0.23780000      -0.76800000      -1.99760000
H        1.52770000       0.37760000      -1.58030000
H        2.44070000      -1.98700000      -1.35490000
