17
Properties=species:S:1:pos:R:3 gdb_93306=T pbc="F F F"
O        0.03000000       1.49190000       0.07240000
C        0.00110000       0.07490000       0.01800000
C        0.58130000      -0.58820000       1.27820000
O       -0.53720000      -0.79830000       2.16090000
C       -1.70340000      -0.85080000       1.44320000
N       -2.84180000      -1.10460000       1.92090000
C       -1.40680000      -0.50570000       0.01470000
C       -2.45850000      -0.10410000      -0.94540000
N       -1.88050000      -1.45250000      -1.02200000
H       -0.55640000       1.78160000       0.78070000
H        0.57080000      -0.19130000      -0.87630000
H        1.04640000      -1.55470000       1.04950000
H        1.30320000       0.05490000       1.78480000
H       -2.78150000      -1.32110000       2.91680000
H       -3.48360000      -0.07630000      -0.58980000
H       -2.19070000       0.63320000      -1.69750000
H       -1.19300000      -1.48500000      -1.77310000
