18
Properties=species:S:1:pos:R:3 gdb_67308=T pbc="F F F"
C       -0.05690000       1.46930000       0.02650000
C       -0.03120000      -0.03240000       0.01150000
C        0.82230000      -0.98340000      -0.90850000
C        2.00610000      -0.98860000       0.07820000
C        0.75630000      -0.99490000       0.98040000
C       -0.02480000      -1.93220000       0.00140000
C       -1.25490000      -0.99510000      -0.05870000
C       -2.17700000      -0.99600000       1.06700000
N       -2.89800000      -0.98450000       1.97150000
H        0.95740000       1.87760000       0.08770000
H       -0.52500000       1.86580000      -0.88090000
H       -0.62290000       1.84000000       0.88760000
H        0.82500000      -0.97980000      -1.99990000
H        2.62550000      -1.89030000       0.09370000
H        2.63470000      -0.09360000       0.10480000
H        0.68470000      -1.00380000       2.06810000
H       -0.01590000      -3.02150000      -0.00320000
H       -1.80810000      -0.99130000      -1.00380000
