18
Properties=species:S:1:pos:R:3 gdb_91437=T pbc="F F F"
C        0.20890000       1.51700000      -0.30460000
C        0.02400000       0.06290000       0.06070000
O        0.72610000      -0.85470000      -0.83080000
C        1.32820000      -1.55770000       0.26480000
C        2.75060000      -1.04840000       0.61070000
N        2.11710000      -0.06280000       1.50020000
C        2.67420000       0.76010000       2.41920000
O        3.86770000       0.91920000       2.56540000
C        0.75270000      -0.54060000       1.28880000
H        1.26230000       1.80350000      -0.25490000
H       -0.15200000       1.69400000      -1.32210000
H       -0.36400000       2.15670000       0.37550000
H       -1.04310000      -0.20090000       0.08240000
H        1.13950000      -2.63160000       0.25250000
H        3.38610000      -1.75740000       1.15250000
H        3.30110000      -0.62180000      -0.23170000
H        1.90410000       1.27570000       3.03050000
H        0.17720000      -0.76730000       2.18700000
