13
Properties=species:S:1:pos:R:3 gdb_25166=T pbc="F F F"
N       -0.06020000       1.34600000       0.01060000
C       -0.02560000       0.07310000       0.00370000
N        1.14640000      -0.72160000      -0.00770000
C        1.14670000      -2.07660000      -0.01490000
N        0.08260000      -2.81520000      -0.01240000
C       -1.10700000      -2.13120000      -0.00150000
C       -1.22270000      -0.77000000       0.00640000
C       -2.50500000      -0.15040000       0.01750000
N       -3.56670000       0.31080000       0.02640000
H        0.86880000       1.76750000       0.00720000
H        2.03170000      -0.23380000      -0.01040000
H        2.12820000      -2.54470000      -0.02330000
H       -2.00150000      -2.74560000       0.00070000
