19
Properties=species:S:1:pos:R:3 gdb_105972=T pbc="F F F"
C        0.13770000       1.51050000      -0.17980000
C       -0.07220000       0.01510000       0.09450000
C        0.66530000      -0.47560000       1.30100000
C        2.13970000      -0.81650000       1.49750000
C        2.04090000      -0.43860000       3.00250000
C        0.55720000      -0.08190000       2.81200000
C        0.97960000      -1.49230000       3.20540000
O        0.74710000      -2.21910000       4.34200000
C        1.07360000      -1.89230000       1.68820000
H        1.19600000       1.73240000      -0.34930000
H       -0.42380000       1.83280000      -1.06220000
H       -0.19590000       2.11720000       0.66870000
H       -1.14540000      -0.18970000       0.21330000
H        0.25340000      -0.57050000      -0.77550000
H        2.96180000      -0.79000000       0.79300000
H        2.75050000      -0.03070000       3.70900000
H       -0.03660000       0.64920000       3.34540000
H       -0.19820000      -2.40170000       4.40000000
H        0.92980000      -2.81950000       1.14770000
