16
Properties=species:S:1:pos:R:3 gdb_8586=T pbc="F F F"
O       -0.10340000      -0.07410000      -0.24600000
C       -0.03490000       1.09410000      -0.02970000
C       -1.12390000       2.21660000       0.26280000
C        0.06420000       2.98990000       0.86220000
C        1.09960000       4.16090000       0.92120000
C        1.90370000       2.82780000       1.24220000
C        0.72940000       2.43260000       2.16370000
C        1.09910000       2.18090000       0.06060000
H       -1.49070000       2.62490000      -0.68520000
H       -1.97120000       1.94640000       0.89760000
H        1.33230000       4.65560000      -0.02510000
H        1.01260000       4.87850000       1.74210000
H        2.97270000       2.76000000       1.45520000
H        0.58320000       3.02420000       3.07100000
H        0.60630000       1.36420000       2.36280000
H        1.33100000       2.55340000      -0.94450000
