17
Properties=species:S:1:pos:R:3 gdb_87312=T pbc="F F F"
O       -0.82970000       1.16260000       0.64670000
C       -0.44260000      -0.14210000       0.37940000
C       -0.94790000      -1.33170000       1.13420000
C       -1.36370000      -1.14290000      -0.33140000
C       -2.81090000      -0.74020000      -0.67410000
C       -3.54360000      -0.04250000       0.37760000
C       -4.15170000       0.52140000       1.25030000
C       -0.77000000      -1.99930000      -1.31800000
C       -0.28060000      -2.70920000      -2.15800000
H       -1.71940000       1.15870000       1.02230000
H        0.59250000      -0.16050000       0.05650000
H       -0.26490000      -2.14110000       1.36440000
H       -1.72620000      -1.16410000       1.87160000
H       -2.79340000      -0.11790000      -1.57710000
H       -3.36500000      -1.64890000      -0.93770000
H       -4.71100000       1.01390000       2.00760000
H        0.15910000      -3.33550000      -2.89390000
