18
Properties=species:S:1:pos:R:3 gdb_47110=T pbc="F F F"
O        0.12990000       0.22710000       0.59700000
C        0.05690000       1.33440000       0.14070000
O       -1.10390000       2.05650000       0.10640000
C       -0.85820000       3.35900000      -0.43560000
C        0.67270000       3.49010000      -0.48840000
C        1.40540000       4.13620000       0.70020000
C        2.75750000       3.39080000       0.70090000
C        2.43210000       1.96940000       0.15520000
N        1.08190000       2.08820000      -0.41320000
H       -1.30480000       3.41730000      -1.43340000
H       -1.33350000       4.10210000       0.21040000
H        0.99650000       3.94730000      -1.43040000
H        1.51420000       5.21940000       0.60520000
H        0.84990000       3.93050000       1.62300000
H        3.46530000       3.89580000       0.03610000
H        3.21420000       3.35360000       1.69210000
H        3.15010000       1.65950000      -0.60930000
H        2.41250000       1.19900000       0.92980000
