17
Properties=species:S:1:pos:R:3 gdb_28065=T pbc="F F F"
N        0.13140000       1.43900000      -0.08030000
C       -0.01550000       0.03890000      -0.01040000
C       -1.10900000      -0.79810000      -0.05720000
C       -0.62870000      -2.14320000       0.00190000
C       -1.45140000      -3.40040000      -0.06240000
C       -1.47990000      -3.95040000      -1.47950000
O       -1.19820000      -5.07990000      -1.78630000
C        0.74470000      -2.07760000       0.08260000
N        1.10350000      -0.74990000       0.07260000
H       -0.70950000       1.86720000      -0.44730000
H        0.31640000       1.85520000       0.82820000
H       -2.14210000      -0.48580000      -0.09890000
H       -1.07320000      -4.18510000       0.59880000
H       -2.48700000      -3.18230000       0.23130000
H       -1.77220000      -3.19750000      -2.24720000
H        1.48530000      -2.85760000       0.15460000
H        2.04220000      -0.39050000       0.04870000
