21
Properties=species:S:1:pos:R:3 gdb_104276=T pbc="F F F"
C       -0.12920000       1.55160000       0.09300000
C       -0.03940000       0.02580000       0.00690000
C       -1.40810000      -0.58420000      -0.26720000
O       -1.87200000      -0.08530000      -1.51330000
C        1.11710000      -0.45260000      -0.92440000
C        1.99370000      -0.70730000       0.32660000
C        0.71770000      -0.66120000       1.21530000
C        0.79110000       0.07090000       2.52530000
O        0.24830000      -0.28210000       3.54280000
H        0.85300000       2.01220000       0.23660000
H       -0.55500000       1.93950000      -0.83550000
H       -0.77510000       1.86970000       0.91950000
H       -1.32040000      -1.68220000      -0.29040000
H       -2.09760000      -0.32480000       0.55340000
H       -2.75020000      -0.44160000      -1.67490000
H        0.86090000      -1.37630000      -1.44980000
H        1.48430000       0.26980000      -1.65660000
H        2.57630000      -1.62970000       0.36340000
H        2.66430000       0.13040000       0.54360000
H        0.30550000      -1.65600000       1.40600000
H        1.40480000       1.00190000       2.50350000
