14
Properties=species:S:1:pos:R:3 gdb_15326=T pbc="F F F"
C        0.07730000       1.50370000       0.03220000
C        0.05680000       0.05000000       0.05850000
C        0.02650000      -1.15290000       0.08990000
C       -0.00500000      -2.58590000       0.09310000
N       -0.61220000      -3.26660000       1.25140000
C       -1.29040000      -3.36570000      -0.04920000
C       -2.56380000      -2.70040000      -0.17640000
N       -3.58800000      -2.18420000      -0.31860000
H        0.81260000       1.87560000      -0.68930000
H       -0.90230000       1.90380000      -0.25010000
H        0.33590000       1.91260000       1.01490000
H        0.85330000      -3.07050000      -0.36930000
H       -0.12320000      -4.13730000       1.44490000
H       -1.22900000      -4.29980000      -0.60180000
