17
Properties=species:S:1:pos:R:3 gdb_32448=T pbc="F F F"
C       -0.05400000       1.31920000      -0.06410000
O        0.00430000      -0.09070000      -0.00710000
C        0.64590000      -0.60350000       1.08300000
C        1.25640000       0.01520000       2.15560000
N        1.74120000      -0.98780000       2.96280000
C        1.45550000      -2.22730000       2.42970000
N        1.87000000      -3.39740000       3.10400000
C        0.77010000      -2.00780000       1.25470000
O        0.29670000      -2.97380000       0.41140000
H        0.95350000       1.75720000      -0.09370000
H       -0.58940000       1.58040000      -0.97870000
H       -0.59110000       1.72950000       0.80250000
H        1.38060000       1.05440000       2.40420000
H        2.24700000      -0.87020000       3.82200000
H        2.46830000      -3.96850000       2.51460000
H        1.07600000      -3.97820000       3.35730000
H       -0.12950000      -2.51820000      -0.32300000
