16
Properties=species:S:1:pos:R:3 gdb_49181=T pbc="F F F"
O       -0.84580000       1.12210000      -0.19220000
C        0.25120000       0.97130000       0.27800000
C        1.43990000       1.82420000      -0.04300000
N        2.53800000       1.54950000       0.54330000
C        3.69030000       2.31380000       0.19900000
C        4.13840000       2.34220000      -1.25760000
C        3.51700000       3.55940000      -0.64000000
C        2.08450000       3.92580000      -0.95010000
O        1.20220000       2.78790000      -0.95750000
H        0.50540000       0.17350000       1.00340000
H        4.46830000       2.28370000       0.95300000
H        5.20490000       2.34880000      -1.45120000
H        3.55140000       1.76080000      -1.96040000
H        4.15840000       4.40910000      -0.42630000
H        1.71480000       4.63960000      -0.20240000
H        1.97320000       4.37710000      -1.93960000
