19
Properties=species:S:1:pos:R:3 gdb_91299=T pbc="F F F"
C       -0.82800000       1.23230000      -0.15070000
C       -0.00890000      -0.05010000      -0.12660000
C        1.39940000      -0.06460000      -0.81100000
C        1.99600000      -0.69990000       0.46220000
O        2.57480000       0.28420000       1.34840000
C        1.38030000       0.30690000       2.17570000
C        0.92100000       1.63760000       2.53770000
C        0.57320000       2.72540000       2.91430000
C        0.62230000      -0.61830000       1.18590000
H       -0.25070000       2.08980000       0.19990000
H       -1.15990000       1.44210000      -1.17390000
H       -1.72050000       1.14990000       0.47890000
H       -0.61510000      -0.85870000      -0.55000000
H        1.46200000      -0.67240000      -1.71740000
H        1.82770000       0.92080000      -1.01050000
H        2.61280000      -1.59810000       0.37870000
H        1.57750000      -0.24260000       3.10890000
H        0.25410000       3.68990000       3.22420000
H        0.10960000      -1.46100000       1.64860000
