14
Properties=species:S:1:pos:R:3 gdb_2476=T pbc="F F F"
O        0.03210000       0.05030000      -0.04290000
C        0.02780000       1.24970000      -0.00290000
C       -1.16870000       2.23410000       0.03350000
N       -0.46130000       3.54540000       0.07500000
C        0.61930000       3.29860000      -0.96400000
C        1.18770000       2.23880000       0.02640000
C        0.62560000       3.23020000       1.08860000
H       -1.79950000       2.15150000      -0.85590000
H       -1.79400000       2.09240000       0.91940000
H        0.25960000       2.97480000      -1.94460000
H        1.25390000       4.18160000      -1.06520000
H        2.19770000       1.83390000       0.00980000
H        1.26110000       4.10470000       1.24440000
H        0.27190000       2.84190000       2.04770000
