15
Properties=species:S:1:pos:R:3 gdb_49261=T pbc="F F F"
O        0.00530000      -0.01820000       0.01180000
C        0.01750000       1.19150000      -0.01210000
C        1.26150000       1.98100000       0.01940000
C        1.24850000       3.32210000      -0.01420000
C        2.52720000       4.09970000       0.03610000
N        3.66990000       3.21100000      -0.13830000
C        3.69180000       1.84040000      -0.02740000
O        4.71500000       1.18760000      -0.05100000
N        2.43780000       1.25810000       0.09020000
H       -0.91210000       1.79350000      -0.05860000
H        0.30830000       3.85740000      -0.05800000
H        2.53470000       4.86510000      -0.75360000
H        2.59080000       4.65120000       0.99100000
H        4.59180000       3.61570000      -0.16790000
H        2.38420000       0.25080000       0.07590000
