13
Properties=species:S:1:pos:R:3 gdb_25240=T pbc="F F F"
O       -0.10520000      -0.03620000       0.00540000
C        0.03260000       1.15050000       0.00920000
O       -1.07180000       2.00920000       0.02890000
C       -0.69130000       3.39490000       0.03060000
C        0.79240000       3.29650000       0.00970000
C        1.21830000       2.01490000      -0.00260000
C        2.65160000       2.07090000      -0.02180000
C        2.94670000       3.39830000      -0.01900000
O        1.79980000       4.17540000       0.00040000
H       -1.11830000       3.88730000      -0.85090000
H       -1.09380000       3.87840000       0.92840000
H        3.35920000       1.25810000      -0.03550000
H        3.86930000       3.95400000      -0.02870000
