20
Properties=species:S:1:pos:R:3 gdb_78507=T pbc="F F F"
C       -0.08350000       1.53300000       0.06520000
N        0.08620000       0.08710000       0.03010000
C        0.76940000      -0.52120000      -1.10310000
C        2.32700000      -0.57470000      -0.81920000
C        3.33640000      -0.72550000      -1.91650000
C        2.49310000       0.07010000       0.55600000
C        1.10610000      -0.55030000       0.90970000
C        1.37210000      -1.60060000      -0.26500000
O        1.40690000      -2.96570000      -0.34030000
H        0.82730000       2.11310000      -0.15120000
H       -0.84200000       1.81700000      -0.67230000
H       -0.45320000       1.82680000       1.05350000
H        0.37180000      -0.54240000      -2.11140000
H        3.62030000       0.24760000      -2.33360000
H        4.24960000      -1.21410000      -1.55750000
H        2.93990000      -1.33590000      -2.73500000
H        3.28630000      -0.42590000       1.12310000
H        2.61240000       1.15570000       0.63750000
H        0.81490000      -0.74240000       1.94190000
H        0.50060000      -3.29550000      -0.32170000
