18
Properties=species:S:1:pos:R:3 gdb_63337=T pbc="F F F"
C        0.00450000       1.52830000      -0.01270000
C       -0.00640000       0.00170000       0.02770000
C       -1.41640000      -0.57720000      -0.06700000
O        0.77730000      -0.49850000      -1.08860000
C        1.83430000      -1.22370000      -0.66290000
N        2.64790000      -1.75210000      -1.47150000
N        1.79950000      -1.23720000       0.73580000
C        0.73370000      -0.52930000       1.25360000
N        0.36700000      -0.31130000       2.44820000
H        1.02940000       1.90800000       0.00470000
H       -0.48350000       1.88330000      -0.92420000
H       -0.52650000       1.91820000       0.85880000
H       -1.90490000      -0.22760000      -0.98030000
H       -1.38520000      -1.66980000      -0.08440000
H       -1.99870000      -0.25900000       0.80080000
H        3.38130000      -2.26060000      -0.98400000
H        2.49000000      -1.71620000       1.28940000
H        0.98630000      -0.74740000       3.13230000
