17
Properties=species:S:1:pos:R:3 gdb_61436=T pbc="F F F"
N        0.29710000       1.10880000      -0.14670000
C       -0.28300000      -0.08020000      -0.44440000
O       -0.15920000      -0.58590000      -1.55450000
C       -1.09080000      -0.71030000       0.68070000
C       -1.01510000      -2.25630000       0.74410000
O       -1.23420000      -2.66750000       2.06500000
C       -2.06190000      -2.96620000      -0.14820000
N       -2.00680000      -2.70120000      -1.46290000
O       -2.86230000      -3.72760000       0.38150000
H        0.82770000       1.57760000      -0.86320000
H        0.24370000       1.51960000       0.76820000
H       -0.74540000      -0.34250000       1.65110000
H       -2.13340000      -0.38600000       0.57500000
H       -0.01560000      -2.56980000       0.40460000
H       -1.98210000      -3.29140000       1.99290000
H       -1.33800000      -2.01670000      -1.81090000
H       -2.67780000      -3.13980000      -2.07180000
