17
Properties=species:S:1:pos:R:3 gdb_35104=T pbc="F F F"
N        0.03050000      -1.24150000       0.55890000
C        0.03790000      -0.11140000       0.31440000
C        0.04950000       1.32090000      -0.00410000
C       -0.74680000       2.14000000       0.99740000
C        0.01630000       3.01600000       1.64490000
C        1.46100000       2.96130000       1.22930000
C        1.46390000       1.96000000       0.06760000
C        2.67110000       1.23670000      -0.39100000
N        2.14280000       2.37550000      -1.16590000
H       -0.36400000       1.42500000      -1.01740000
H       -1.80830000       1.98110000       1.13820000
H       -0.34500000       3.70200000       2.40270000
H        1.84710000       3.92980000       0.89320000
H        2.10140000       2.63280000       2.05840000
H        3.62350000       1.41960000       0.09950000
H        2.54830000       0.22970000      -0.78070000
H        1.64370000       2.03590000      -1.98530000
