17
Properties=species:S:1:pos:R:3 gdb_14573=T pbc="F F F"
C       -0.01640000      -1.24200000      -0.00430000
C       -0.03430000      -0.04030000       0.00240000
C       -0.02020000       1.41710000       0.01040000
C        1.40660000       2.00190000      -0.00090000
C        1.40600000       3.53230000       0.00770000
C        2.83610000       4.10790000      -0.00360000
C        2.85440000       5.56910000       0.00470000
N        2.84910000       6.72460000       0.01090000
H       -0.01570000      -2.30370000      -0.00990000
H       -0.57610000       1.79350000      -0.85850000
H       -0.55810000       1.78360000       0.89480000
H        1.95400000       1.62130000       0.86950000
H        1.93600000       1.63110000      -0.88650000
H        0.86070000       3.91460000      -0.86280000
H        0.87860000       3.90480000       0.89340000
H        3.39680000       3.74880000       0.86750000
H        3.37890000       3.75880000      -0.89000000
