14
Properties=species:S:1:pos:R:3 gdb_51510=T pbc="F F F"
O        0.20640000       0.03780000      -0.47620000
C        0.26770000       1.22800000      -0.49290000
O        0.85560000       1.92990000       0.50810000
C        0.93920000       3.34410000       0.33850000
C        1.26780000       4.06060000       1.61520000
C        2.36450000       4.79610000       1.41100000
N        2.86170000       4.65100000       0.10280000
C        2.12510000       3.71890000      -0.59750000
O        2.34780000       3.27350000      -1.69520000
H       -0.14750000       1.87280000      -1.28780000
H        0.01140000       3.71930000      -0.11760000
H        0.68040000       4.01210000       2.51800000
H        2.86920000       5.46660000       2.09170000
H        3.75910000       4.97980000      -0.21520000
