14
Properties=species:S:1:pos:R:3 gdb_125361=T pbc="F F F"
C       -0.01270000       1.38320000       0.19690000
C       -0.00540000      -0.09990000       0.02750000
C       -0.03220000      -0.82230000      -1.11550000
N       -0.01350000      -2.19300000      -0.84710000
C        0.02830000      -2.46230000       0.51600000
C        0.03330000      -1.09230000       1.09380000
N        0.06950000      -0.88660000       2.37640000
N        0.09920000      -0.74360000       3.50080000
O        0.05290000      -3.55000000       1.05260000
H        0.88300000       1.73950000       0.72020000
H       -0.04750000       1.87810000      -0.77720000
H       -0.87970000       1.72440000       0.77550000
H       -0.06470000      -0.46580000      -2.13350000
H       -0.02720000      -2.92960000      -1.53130000
