16
Properties=species:S:1:pos:R:3 gdb_133711=T pbc="F F F"
O       -0.11660000       1.43530000       0.41080000
C        0.00190000       0.07360000       0.11330000
C       -0.62700000      -0.94240000       1.02910000
C       -1.25330000      -0.63290000      -0.31860000
C       -2.55580000       0.13150000      -0.39450000
C       -3.75750000      -0.71310000      -0.02400000
F       -3.72860000      -1.09890000       1.26330000
F       -4.90120000      -0.03290000      -0.20810000
F       -3.83260000      -1.82960000      -0.76970000
H        0.42430000       1.61910000       1.18560000
H        0.92440000      -0.19970000      -0.39800000
H       -0.14090000      -1.90110000       1.17090000
H       -1.14190000      -0.55940000       1.90310000
H       -1.12980000      -1.38830000      -1.08770000
H       -2.53330000       0.99670000       0.27140000
H       -2.72770000       0.50580000      -1.40880000
