15
Properties=species:S:1:pos:R:3 gdb_4751=T pbc="F F F"
C        0.00350000       1.45340000       0.00880000
N       -0.03570000       0.00540000      -0.00190000
C       -0.00410000      -0.78350000      -1.12900000
C        0.03890000      -2.09710000      -0.73890000
C        0.03660000      -2.11700000       0.69300000
C       -0.00610000      -0.79390000       1.10520000
C        0.06040000      -3.25570000       1.53070000
C        0.08250000      -4.23460000       2.23340000
H        1.03220000       1.83130000      -0.00520000
H       -0.52410000       1.84110000      -0.86570000
H       -0.49500000       1.82710000       0.90600000
H       -0.01630000      -0.33530000      -2.10990000
H        0.05370000      -2.96080000      -1.38420000
H       -0.01820000      -0.37490000       2.09840000
H        0.10130000      -5.09470000       2.85450000
