17
Properties=species:S:1:pos:R:3 gdb_34873=T pbc="F F F"
C       -0.11320000      -1.26050000      -0.07400000
C       -0.05340000      -0.06170000      -0.00030000
C        0.02910000       1.38340000       0.05420000
C       -0.23690000       2.11750000       1.39090000
N        0.84010000       1.73720000       2.32630000
C        1.07880000       2.81060000       1.32460000
C        1.43110000       2.07990000       0.04580000
C        2.71530000       1.55650000      -0.44290000
N        2.05180000       2.70600000      -1.10790000
H       -0.16680000      -2.32020000      -0.11690000
H       -0.59000000       1.83390000      -0.73140000
H       -1.19910000       2.46640000       1.74250000
H        0.63610000       2.19400000       3.21510000
H        1.36180000       3.81500000       1.61110000
H        3.63860000       1.79790000       0.07550000
H        2.70210000       0.58870000      -0.93720000
H        1.59830000       2.40130000      -1.96650000
