18
Properties=species:S:1:pos:R:3 gdb_40944=T pbc="F F F"
C        0.03520000       1.54360000      -0.08180000
O        1.31890000       1.58230000       0.57610000
C        1.45720000       0.15200000       0.49090000
C        0.02500000      -0.00630000      -0.06200000
C       -0.96240000      -0.60140000       0.92980000
O       -2.30560000      -0.51920000       0.43050000
C       -2.44450000      -0.73250000      -0.90240000
N       -1.55680000      -0.86230000      -1.79280000
C       -0.15670000      -0.72510000      -1.39570000
H       -0.74520000       2.04570000       0.50220000
H        0.07370000       1.98810000      -1.08470000
H        2.24990000      -0.14790000      -0.20880000
H        1.65770000      -0.30600000       1.46870000
H       -0.72380000      -1.65600000       1.12380000
H       -0.96140000      -0.06520000       1.88220000
H       -3.50160000      -0.77880000      -1.15770000
H        0.37090000      -0.19060000      -2.19420000
H        0.29680000      -1.72550000      -1.34940000
