11
Properties=species:S:1:pos:R:3 gdb_130603=T pbc="F F F"
O       -0.02520000      -0.40790000       0.51720000
C       -0.40730000       0.73180000       0.45110000
C       -1.72680000       1.33940000       0.57410000
C       -1.55910000       2.66270000       0.41150000
O       -0.27560000       3.08690000       0.18570000
N        2.70920000       5.26410000      -0.82200000
N        1.98600000       4.86380000      -1.54570000
C        0.53730000       1.94940000       0.18780000
O        1.70770000       2.00120000       0.01310000
H       -2.65590000       0.82530000       0.75970000
H       -2.28640000       3.46350000       0.43020000
