19
Properties=species:S:1:pos:R:3 gdb_13985=T pbc="F F F"
C        0.45700000       1.39700000      -0.04010000
O        0.80580000       0.03720000      -0.12770000
C        0.06240000      -0.65690000      -1.10970000
C        0.45600000      -2.09960000      -1.07850000
C        0.54290000      -2.98800000       0.17330000
C        1.73910000      -3.75020000      -0.49040000
C        1.60520000      -2.83390000      -1.71460000
N        0.26100000      -2.89670000      -2.28350000
H        0.64250000       1.92950000      -0.98660000
H       -0.60450000       1.53170000       0.22360000
H        1.07460000       1.84450000       0.74260000
H       -1.02000000      -0.55230000      -0.91080000
H        0.24760000      -0.24930000      -2.11600000
H        0.84970000      -2.42880000       1.05850000
H       -0.35730000      -3.56630000       0.40960000
H        2.67410000      -3.60750000       0.05590000
H        1.60680000      -4.82000000      -0.68510000
H        2.40600000      -2.46970000      -2.34850000
H       -0.20450000      -3.78420000      -2.09900000
