20
Properties=species:S:1:pos:R:3 gdb_9557=T pbc="F F F"
C        0.00710000       1.23100000       0.19160000
O       -0.02610000      -0.14620000      -0.11380000
C        0.69310000      -0.57340000      -1.27220000
C        0.18340000       0.07450000      -2.54830000
C        2.22680000      -0.63150000      -0.99720000
C        2.04680000      -2.06520000      -0.42900000
C        0.67930000      -2.13430000      -1.16610000
O       -0.42710000      -2.72990000      -0.55750000
H        1.03350000       1.61860000       0.25200000
H       -0.54960000       1.83230000      -0.53930000
H       -0.46630000       1.34850000       1.16970000
H        0.39130000       1.14910000      -2.58120000
H        0.66900000      -0.37920000      -3.41730000
H       -0.89760000      -0.07190000      -2.64350000
H        2.80060000      -0.61430000      -1.92800000
H        2.63480000       0.12700000      -0.32600000
H        2.79690000      -2.81700000      -0.68240000
H        1.90030000      -2.05490000       0.65350000
H        0.79230000      -2.58550000      -2.15720000
H       -0.71130000      -2.10710000       0.12490000
