23
Properties=species:S:1:pos:R:3 gdb_112836=T pbc="F F F"
C        0.09450000       1.53060000      -0.02530000
C        0.01700000       0.00190000       0.03070000
C       -1.41510000      -0.54750000       0.02510000
C       -2.22890000      -0.23250000      -1.25840000
C       -3.25380000      -1.38420000      -1.43160000
C       -3.64970000      -1.65060000      -2.88520000
C       -2.57080000      -2.55600000      -0.74620000
O       -1.19650000      -2.72380000      -1.13340000
C       -1.49030000      -2.06340000       0.11020000
H        1.13310000       1.87410000       0.00630000
H       -0.35530000       1.92260000      -0.94320000
H       -0.43170000       1.98560000       0.82190000
H        0.55780000      -0.43200000      -0.81940000
H        0.53010000      -0.35270000       0.93440000
H       -1.94830000      -0.15060000       0.90250000
H       -2.71600000       0.74480000      -1.21800000
H       -1.55210000      -0.22330000      -2.11890000
H       -4.15810000      -1.15730000      -0.84850000
H       -2.77260000      -1.94990000      -3.46800000
H       -4.39360000      -2.45130000      -2.95770000
H       -4.07720000      -0.75580000      -3.34920000
H       -3.11130000      -3.47930000      -0.54780000
H       -1.15310000      -2.58800000       1.00190000
