18
Properties=species:S:1:pos:R:3 gdb_74880=T pbc="F F F"
C       -0.01600000       1.50680000       0.07090000
C        0.00250000       0.00570000      -0.00520000
C       -0.01080000      -0.65960000      -1.16990000
C       -0.00180000      -2.13460000      -1.26720000
O        1.18830000      -2.84060000      -0.84740000
C        0.03740000      -2.93840000      -0.02650000
C        0.04560000      -2.21920000       1.29370000
N        1.25430000      -1.46810000       1.64930000
C        0.02040000      -0.72350000       1.28980000
H        0.89130000       1.88380000       0.55950000
H       -0.08300000       1.96020000      -0.92130000
H       -0.86500000       1.86280000       0.66850000
H       -0.04080000      -0.10370000      -2.10360000
H       -0.45800000      -2.56300000      -2.15850000
H       -0.44360000      -3.91660000      -0.02190000
H       -0.50090000      -2.72160000       2.08790000
H        1.36010000      -1.46610000       2.66140000
H       -0.50090000      -0.22680000       2.10630000
