21
Properties=species:S:1:pos:R:3 gdb_57599=T pbc="F F F"
C        0.34330000       1.54990000       0.11970000
C       -0.02780000       0.06930000      -0.03680000
C        0.37640000      -0.73180000       1.21760000
C       -1.53870000      -0.07440000      -0.21700000
O       -2.29860000       0.84320000      -0.39360000
C        0.69710000      -0.51380000      -1.27620000
C        0.29900000      -1.92750000      -1.76380000
O       -0.41450000      -1.38010000      -2.88890000
C        0.15810000      -0.07390000      -2.65870000
H        1.42250000       1.65780000       0.26830000
H        0.05310000       2.12850000      -0.76060000
H       -0.16890000       1.99050000       0.97920000
H       -0.08080000      -0.30970000       2.11820000
H        0.07120000      -1.78100000       1.14790000
H        1.46290000      -0.70710000       1.34990000
H       -1.91840000      -1.11950000      -0.16250000
H        1.77170000      -0.37020000      -1.13230000
H        1.15360000      -2.54070000      -2.08110000
H       -0.34680000      -2.53610000      -1.12130000
H       -0.60210000       0.71410000      -2.67230000
H        0.93940000       0.16300000      -3.39290000
