18
Properties=species:S:1:pos:R:3 gdb_67898=T pbc="F F F"
C        0.01590000       1.52730000      -0.02990000
C       -0.03160000       0.01640000      -0.06250000
C       -1.42290000      -0.67240000       0.01330000
C       -0.83070000      -1.45030000       1.21290000
O       -1.16590000      -2.38590000       1.87600000
N        0.38460000      -0.69330000       1.20060000
C        1.57950000      -1.27070000       0.52620000
C        1.20680000      -2.14410000      -0.63440000
C        1.15450000      -0.64620000      -0.80470000
H        1.03020000       1.87930000       0.18300000
H       -0.29230000       1.94090000      -0.99700000
H       -0.65170000       1.92090000       0.74230000
H       -2.25800000      -0.00710000       0.24590000
H       -1.70580000      -1.32330000      -0.81690000
H        2.53720000      -1.30130000       1.02970000
H        2.05050000      -2.61230000      -1.13220000
H        0.31550000      -2.76330000      -0.60970000
H        1.76510000      -0.13230000      -1.53680000
