23
Properties=species:S:1:pos:R:3 gdb_119606=T pbc="F F F"
C       -0.05140000       1.59280000      -0.10890000
C       -0.03320000       0.06430000      -0.18990000
C       -1.37010000      -0.57230000       0.22070000
C       -1.38430000      -2.08020000       0.11750000
C       -1.67350000      -2.77550000      -1.19240000
C       -2.64760000      -2.89750000      -0.04600000
C       -2.47460000      -4.11650000       0.83890000
O       -1.07290000      -4.21420000       1.07920000
C       -0.53120000      -2.89750000       1.08110000
H        0.91120000       2.02040000      -0.40600000
H       -0.82030000       2.01460000      -0.76610000
H       -0.26690000       1.93370000       0.91000000
H        0.21360000      -0.25080000      -1.21150000
H        0.76920000      -0.32510000       0.44970000
H       -1.60960000      -0.27480000       1.25200000
H       -2.17040000      -0.16110000      -0.40830000
H       -1.96810000      -2.15040000      -2.02880000
H       -1.08720000      -3.64920000      -1.46070000
H       -3.62150000      -2.42550000      -0.10940000
H       -3.03410000      -3.98630000       1.78040000
H       -2.78910000      -5.06030000       0.38050000
H        0.52250000      -2.98440000       0.79550000
H       -0.57950000      -2.44610000       2.08760000
