17
Properties=species:S:1:pos:R:3 gdb_50006=T pbc="F F F"
O        0.16580000       0.21170000       0.62140000
C        0.08360000       1.32810000       0.17340000
N        1.07120000       1.96140000      -0.56590000
C        2.48740000       1.84610000      -0.27280000
C        1.78480000       3.16090000      -0.18180000
C        2.01740000       4.43760000      -0.99470000
N        1.96730000       5.27210000       0.26350000
C        0.61530000       5.08200000       0.80690000
C        1.61010000       4.01260000       1.04870000
H       -0.82920000       1.94860000       0.25200000
H        2.75620000       1.33850000       0.65090000
H        3.13420000       1.63970000      -1.12160000
H        3.00650000       4.49580000      -1.45310000
H        1.25240000       4.70190000      -1.73120000
H        0.39300000       5.74630000       1.63620000
H       -0.21350000       4.91380000       0.12160000
H        2.02800000       3.80320000       2.02800000
