16
Properties=species:S:1:pos:R:3 gdb_6515=T pbc="F F F"
C       -0.01980000       1.54560000       0.06100000
C        0.00840000       0.03340000      -0.00860000
N       -1.22160000      -0.51550000      -0.52550000
C        1.34330000      -0.65550000      -0.24150000
C        0.67680000      -0.70960000       1.13440000
O        1.19050000       0.06400000       2.17490000
C        0.11620000      -1.97870000       1.55070000
N       -0.31930000      -3.00140000       1.87290000
H        0.88310000       1.94450000       0.52360000
H       -0.10410000       1.95810000      -0.95070000
H       -0.88880000       1.87570000       0.63560000
H       -1.28350000      -0.34550000      -1.52520000
H       -1.27910000      -1.51920000      -0.38540000
H        1.36200000      -1.56860000      -0.82640000
H        2.24050000      -0.04710000      -0.29270000
H        1.99310000      -0.36070000       2.50010000
