15
Properties=species:S:1:pos:R:3 gdb_4177=T pbc="F F F"
C       -0.04660000       1.60100000      -0.06250000
C        0.02540000       0.08090000       0.00890000
C        0.70690000      -0.67270000      -1.16360000
O        2.06310000      -0.23840000      -1.21400000
C        1.71980000      -1.27800000      -0.26870000
C        1.09260000      -0.58520000       0.89930000
N        1.33220000      -0.69470000       2.13660000
O        0.44850000       0.09340000       2.89600000
H        0.92290000       2.01190000      -0.35440000
H       -0.79480000       1.92040000      -0.79550000
H       -0.31960000       2.01440000       0.91150000
H       -0.95280000      -0.35440000       0.24680000
H        0.26530000      -1.06360000      -2.07240000
H        2.27010000      -2.20800000      -0.32110000
H        0.74400000      -0.08010000       3.79640000
