23
Properties=species:S:1:pos:R:3 gdb_104306=T pbc="F F F"
C        0.05110000       1.51910000      -0.19700000
C       -0.03060000       0.00640000       0.03410000
C       -1.45630000      -0.55980000       0.11290000
C       -2.24260000       0.00710000       1.30560000
O       -2.11710000      -0.21780000      -1.12430000
C       -3.10690000      -1.19730000      -1.42150000
C       -2.58680000      -2.49620000      -0.83340000
C       -1.14420000      -2.81010000      -1.13400000
C       -1.50660000      -2.08820000       0.13900000
H        1.09230000       1.83130000      -0.32490000
H       -0.50270000       1.79950000      -1.09660000
H       -0.35910000       2.08770000       0.64350000
H        0.49030000      -0.51010000      -0.77880000
H        0.49370000      -0.26160000       0.96000000
H       -2.36330000       1.08880000       1.21030000
H       -3.23820000      -0.44270000       1.36280000
H       -1.72630000      -0.20190000       2.24860000
H       -4.07990000      -0.93730000      -0.97490000
H       -3.22850000      -1.21340000      -2.51040000
H       -3.28620000      -3.29530000      -0.61760000
H       -0.82730000      -3.84330000      -1.04550000
H       -0.65590000      -2.25220000      -1.92680000
H       -1.38060000      -2.58940000       1.09190000
