13
Properties=species:S:1:pos:R:3 gdb_29164=T pbc="F F F"
N        0.07670000       1.44010000       0.06610000
C       -0.02090000       0.05290000      -0.04050000
C       -1.18090000      -0.63280000      -0.13110000
O       -1.18680000      -1.98950000      -0.32440000
C       -0.03890000      -2.71600000      -0.42190000
O       -0.06550000      -3.90370000      -0.59370000
C        1.18370000      -1.88030000      -0.28780000
O        2.32220000      -2.57300000      -0.36000000
N        1.19180000      -0.60650000      -0.11410000
H        0.92620000       1.72350000       0.53520000
H       -0.73580000       1.89140000       0.46160000
H       -2.17760000      -0.22030000      -0.07950000
H        3.04430000      -1.93390000      -0.26780000
