14
Properties=species:S:1:pos:R:3 gdb_127961=T pbc="F F F"
C        0.02310000       1.42670000      -0.13790000
N        0.04020000      -0.02440000      -0.15020000
C       -1.03790000      -0.64990000       0.08240000
N       -2.28500000      -0.07900000       0.35900000
N       -3.46960000      -0.70350000       0.61400000
N       -3.50640000      -1.95390000       0.61480000
N       -2.34660000      -2.63790000       0.35760000
C       -1.07590000      -2.14810000       0.08200000
O       -0.14230000      -2.87940000      -0.12680000
H        1.02590000       1.79980000      -0.35390000
H       -0.65800000       1.84200000      -0.89750000
H       -0.27980000       1.83200000       0.84050000
H       -2.37720000       0.92450000       0.38480000
H       -2.45870000      -3.64240000       0.37600000
