22
Properties=species:S:1:pos:R:3 gdb_120788=T pbc="F F F"
C        1.02550000      -0.19590000       4.99050000
C        1.26770000      -1.30170000       3.96000000
C        0.30870000      -1.22530000       2.76310000
C        0.60880000      -2.29400000       1.73180000
C       -0.06320000      -3.62680000       1.75250000
N       -0.31300000      -2.68830000       0.66350000
C       -1.62830000      -2.05400000       0.50040000
C       -2.60780000      -2.17270000       1.58550000
C       -3.43010000      -2.30460000       2.45400000
H        0.00710000      -0.24460000       5.39160000
H        1.71960000      -0.27640000       5.83290000
H        1.15650000       0.79640000       4.54460000
H        2.30320000      -1.24650000       3.59920000
H        1.16510000      -2.28390000       4.43830000
H       -0.72430000      -1.31000000       3.11260000
H        0.40090000      -0.23500000       2.29390000
H        1.64070000      -2.26690000       1.37810000
H        0.47170000      -4.53310000       1.47900000
H       -0.85090000      -3.76540000       2.49070000
H       -1.46340000      -0.99420000       0.27140000
H       -2.07680000      -2.49230000      -0.40050000
H       -4.15720000      -2.40720000       3.22140000
