14
Properties=species:S:1:pos:R:3 gdb_1448=T pbc="F F F"
C        0.16500000       1.38670000      -0.24240000
N        0.03300000      -0.02140000       0.08260000
C        0.33470000      -0.51970000       1.31250000
O        0.73980000       0.15880000       2.24030000
C        0.14850000      -2.02830000       1.46640000
C        1.42040000      -2.67220000       1.99940000
O        1.85560000      -3.72010000       1.60090000
H        0.49970000       1.89780000       0.66080000
H        0.90250000       1.54420000      -1.03690000
H       -0.79280000       1.81060000      -0.56220000
H       -0.28060000      -0.65650000      -0.63190000
H       -0.62490000      -2.16900000       2.23320000
H       -0.16520000      -2.54670000       0.55710000
H        1.91520000      -2.08710000       2.80060000
