21
Properties=species:S:1:pos:R:3 gdb_56644=T pbc="F F F"
C       -0.02720000       1.47670000      -0.28360000
C        0.14470000      -0.01140000      -0.06960000
C        1.50930000      -0.66160000      -0.04030000
C        0.66460000      -0.62010000       1.21620000
C        1.09670000       0.25370000       2.37780000
C        0.03010000      -1.96200000       1.62210000
N        0.87110000      -2.88490000       2.39140000
C       -1.21900000      -1.72420000       2.36850000
N       -2.18990000      -1.49740000       2.95230000
H        0.78560000       2.05600000       0.16240000
H       -0.04130000       1.70790000      -1.35420000
H       -0.96870000       1.83430000       0.14660000
H       -0.62820000      -0.60150000      -0.55840000
H        1.64820000      -1.60910000      -0.55310000
H        2.37810000      -0.01150000      -0.07580000
H        1.56830000       1.17650000       2.03470000
H        0.24330000       0.52640000       3.00820000
H        1.82870000      -0.26450000       3.00770000
H       -0.25410000      -2.48590000       0.70020000
H        1.74840000      -3.01270000       1.89440000
H        1.09990000      -2.48130000       3.29460000
