23
Properties=species:S:1:pos:R:3 gdb_71011=T pbc="F F F"
C       -0.00850000       1.56130000      -0.02540000
C       -0.02020000       0.04940000      -0.00190000
C        0.31530000      -0.79580000      -1.30640000
C       -0.40570000      -1.89900000      -0.49810000
C       -0.81900000      -3.38320000      -0.41500000
C       -0.35890000      -3.32240000       1.09270000
C        0.54940000      -2.12030000       0.67960000
C        0.74590000      -0.66180000       1.16430000
C       -1.33760000      -0.77530000       0.03050000
H        1.00980000       1.94900000      -0.14680000
H       -0.61500000       1.95500000      -0.84790000
H       -0.40680000       1.97200000       0.91010000
H       -0.23070000      -0.40060000      -2.16800000
H        1.36480000      -0.96710000      -1.56670000
H       -1.86070000      -3.63690000      -0.62790000
H       -0.16640000      -4.04130000      -0.99690000
H       -1.18180000      -3.04250000       1.75450000
H        0.13650000      -4.20600000       1.50150000
H        1.49880000      -2.53530000       0.32220000
H        1.80120000      -0.37690000       1.22530000
H        0.28150000      -0.42450000       2.12770000
H       -1.83870000      -0.90110000       0.99520000
H       -2.05960000      -0.45420000      -0.72620000
