22
Properties=species:S:1:pos:R:3 gdb_58090=T pbc="F F F"
C        0.05200000       1.59390000      -0.19070000
C       -0.01350000       0.06790000      -0.04590000
N        0.83560000      -0.41800000       1.07040000
H        1.81580000      -0.25520000       0.86160000
H        0.62860000       0.09620000       1.92220000
H        0.19430000      -2.00270000       0.96850000
C       -1.45920000      -0.51140000       0.09040000
C       -2.09680000      -0.16090000       1.45630000
C       -2.35450000       0.01960000      -1.04030000
C       -1.44540000      -2.06820000      -0.00080000
O       -2.31800000      -2.68730000      -0.55570000
O       -0.43640000      -2.68950000       0.61700000
H        1.09720000       1.91330000      -0.26380000
H       -0.46370000       1.94370000      -1.08760000
H       -0.38990000       2.10130000       0.67370000
H        0.41550000      -0.37470000      -0.95380000
H       -2.15760000       0.92240000       1.60110000
H       -3.11470000      -0.55810000       1.49770000
H       -1.54530000      -0.59450000       2.29570000
H       -1.87480000      -0.09690000      -2.01790000
H       -3.28310000      -0.55100000      -1.06380000
H       -2.59130000       1.07710000      -0.89600000
