17
Properties=species:S:1:pos:R:3 gdb_78824=T pbc="F F F"
C       -0.01000000       1.59950000       0.05490000
C        0.09410000       0.08840000      -0.04680000
C        0.80310000      -0.61940000      -1.19240000
C        2.28520000      -0.73330000      -0.78020000
C        1.25400000      -1.67120000      -0.22900000
N        1.01100000      -0.66450000       0.92390000
C        2.38050000      -0.08170000       0.59490000
C        3.40940000      -0.67280000       1.44740000
N        4.24800000      -1.12390000       2.10180000
H        0.90550000       2.11480000      -0.24640000
H       -0.81300000       1.95570000      -0.59850000
H       -0.25660000       1.89460000       1.08040000
H       -0.89500000      -0.35570000       0.10470000
H        0.51010000      -0.73920000      -2.22850000
H        3.07110000      -0.93130000      -1.49690000
H        1.15790000      -2.74410000      -0.15900000
H        2.44680000       1.00700000       0.67550000
