19
Properties=species:S:1:pos:R:3 gdb_88553=T pbc="F F F"
C        0.34610000       1.45180000      -0.46710000
C        0.01510000       0.05360000      -0.01510000
O        1.09370000      -0.88020000       0.12260000
C        0.37300000      -0.51120000       1.30300000
C        1.12220000       0.21260000       2.36150000
C        2.51720000       0.78540000       2.20960000
C        2.25620000      -0.24210000       3.26330000
O        1.67630000       0.34960000       4.42840000
C        0.50980000       0.74250000       3.65950000
H        1.18390000       1.86980000       0.09200000
H        0.60340000       1.45430000      -1.53160000
H       -0.52410000       2.10400000      -0.33410000
H       -0.86270000      -0.38220000      -0.49800000
H       -0.27610000      -1.30370000       1.68500000
H        3.03280000       0.42250000       1.32650000
H        2.73690000       1.80900000       2.50320000
H        2.77390000      -1.18810000       3.37210000
H        0.30530000       1.81790000       3.72400000
H       -0.37250000       0.17860000       3.98650000
