20
Properties=species:S:1:pos:R:3 gdb_112179=T pbc="F F F"
C        0.12210000       1.62350000       0.03320000
C       -0.13500000       0.11440000      -0.04580000
C        0.61310000      -0.54660000      -1.19430000
N        2.08230000      -0.63090000      -1.03780000
C        2.17330000      -1.97480000      -1.28750000
O        3.09380000      -2.73220000      -1.45860000
C        0.62470000      -2.10880000      -1.34980000
C       -0.02220000      -2.96080000      -0.27060000
O        0.18280000      -2.47600000      -2.64440000
H        1.18230000       1.83650000       0.20830000
H       -0.17150000       2.12560000      -0.89520000
H       -0.44330000       2.07740000       0.85210000
H        0.15200000      -0.35760000       0.90010000
H       -1.20770000      -0.07000000      -0.18340000
H        0.32530000      -0.09430000      -2.15050000
H        2.79320000       0.08400000      -1.10470000
H        0.29470000      -2.66270000       0.73250000
H       -1.11240000      -2.89450000      -0.33470000
H        0.26710000      -4.00720000      -0.41260000
H        0.65170000      -3.28400000      -2.88590000
