15
Properties=species:S:1:pos:R:3 gdb_76941=T pbc="F F F"
O        0.16380000       1.18740000       0.29720000
C        0.05890000      -0.19070000       0.19120000
C       -0.57390000      -0.98420000       1.32830000
C       -1.05500000      -0.28350000       2.51930000
O       -1.19870000       0.92730000       2.59430000
C       -1.32380000      -0.72560000      -0.06310000
O       -2.33920000       0.20300000      -0.09790000
C       -1.52710000      -1.89850000      -0.86050000
C       -1.67440000      -2.89210000      -1.52130000
H       -0.20560000       1.44100000       1.16730000
H        0.89530000      -0.64640000      -0.32940000
H       -0.25190000      -2.00880000       1.46870000
H       -1.29920000      -0.92390000       3.38880000
H       -1.90730000       1.06920000      -0.17620000
H       -1.81430000      -3.76150000      -2.11550000
