18
Properties=species:S:1:pos:R:3 gdb_54276=T pbc="F F F"
O        0.11320000       1.55930000      -0.23920000
C       -0.02900000       0.20350000       0.05870000
C        0.57380000      -0.18700000       1.45290000
C       -0.45230000      -1.15530000       2.08620000
N       -1.35450000      -1.47780000       0.95910000
H       -0.24900000      -2.11370000      -0.31650000
H       -2.23560000      -1.87960000       1.25850000
C       -1.50690000      -0.22020000       0.21680000
C        0.63850000      -0.62180000      -1.05940000
O        1.32890000      -0.08300000      -1.89220000
O        0.41550000      -1.93260000      -1.03730000
H        0.70940000       1.58540000      -1.00710000
H        1.56510000      -0.63590000       1.35970000
H        0.67670000       0.73290000       2.03030000
H       -0.00240000      -2.06970000       2.48120000
H       -0.99030000      -0.66080000       2.90720000
H       -2.03880000       0.56580000       0.77360000
H       -2.01640000      -0.38390000      -0.73650000
