15
Properties=species:S:1:pos:R:3 gdb_34837=T pbc="F F F"
C        0.02070000      -1.29820000      -0.00440000
C        0.01960000      -0.09650000       0.01660000
C       -0.02330000       1.34700000       0.00250000
C        0.09280000       2.11260000       1.35860000
O        1.50430000       1.70370000       1.45610000
C        1.32280000       2.13650000       0.06000000
C        0.56380000       3.39460000       0.59640000
C       -0.33260000       4.16160000      -0.23870000
C       -1.07390000       4.81020000      -0.92880000
H        0.03400000      -2.35990000      -0.01150000
H       -0.76720000       1.73980000      -0.69490000
H       -0.52900000       2.03220000       2.24950000
H        2.17990000       2.08480000      -0.61040000
H        1.20880000       4.01720000       1.21870000
H       -1.72850000       5.38330000      -1.53820000
