21
Properties=species:S:1:pos:R:3 gdb_53494=T pbc="F F F"
C        0.02830000       1.50630000      -0.01430000
C        0.01970000       0.04990000      -0.02630000
C        0.03120000      -1.15470000      -0.03620000
C        0.02160000      -2.61300000      -0.04000000
C       -1.40390000      -3.21020000      -0.02490000
C       -2.19870000      -2.82190000      -1.28790000
C       -1.34040000      -4.73550000       0.07800000
C       -2.53100000      -5.42390000       0.72150000
O       -0.39010000      -5.36050000      -0.33600000
H        0.78800000       1.89410000       0.67360000
H        0.24460000       1.91350000      -1.00830000
H       -0.93970000       1.90950000       0.30380000
H        0.55210000      -3.00170000      -0.91650000
H        0.57600000      -2.99010000       0.82810000
H       -1.94340000      -2.82500000       0.84930000
H       -2.23820000      -1.73370000      -1.37930000
H       -1.71450000      -3.22510000      -2.18350000
H       -3.22460000      -3.20050000      -1.25580000
H       -3.47780000      -5.03830000       0.33060000
H       -2.46960000      -6.50160000       0.56520000
H       -2.52570000      -5.21640000       1.79870000
