15
Properties=species:S:1:pos:R:3 gdb_16730=T pbc="F F F"
N        0.73550000      -0.81160000       0.69450000
C        0.34330000       0.22410000       0.36370000
C       -0.18030000       1.53760000      -0.06460000
C       -0.92020000       2.27980000       1.09080000
C        0.10180000       3.29850000       1.56440000
C        1.49840000       2.79560000       1.89310000
C        1.17510000       3.31120000       0.51790000
O        0.87390000       2.38480000      -0.50460000
H       -0.83790000       1.35760000      -0.92100000
H       -1.79910000       2.79190000       0.68930000
H       -1.25450000       1.58310000       1.86290000
H       -0.25970000       4.20930000       2.02570000
H        2.11000000       3.43200000       2.52360000
H        1.66570000       1.73350000       2.03480000
H        1.63790000       4.20360000       0.11590000
