18
Properties=species:S:1:pos:R:3 gdb_14267=T pbc="F F F"
C       -0.03440000       1.59890000       0.18510000
C        1.47090000       1.43230000      -0.11280000
C        2.38740000       1.33320000       1.12030000
C        2.41430000      -0.06870000       1.77190000
C        1.08460000      -0.73360000       2.05590000
C        0.00700000      -0.71120000       1.26940000
C       -0.06510000       0.06180000      -0.01830000
O        1.22120000       0.12450000      -0.69390000
H       -0.32660000       1.97970000       1.16450000
H       -0.55830000       2.14140000      -0.60470000
H        1.88940000       2.11750000      -0.85710000
H        3.41530000       1.58780000       0.83760000
H        2.07370000       2.08670000       1.85320000
H        2.99100000      -0.73410000       1.11770000
H        2.98320000       0.00160000       2.70550000
H        1.03690000      -1.31530000       2.97400000
H       -0.89310000      -1.24140000       1.57150000
H       -0.84040000      -0.33290000      -0.68260000
