12
Properties=species:S:1:pos:R:3 gdb_21472=T pbc="F F F"
N       -0.06560000       1.26380000       0.18000000
C       -0.01750000       0.02530000      -0.02990000
O       -1.15350000      -0.70890000       0.18050000
C       -1.08290000      -2.05520000       0.09070000
N        0.04100000      -2.76250000       0.14760000
N       -0.40730000      -4.01360000       0.03440000
N       -1.71480000      -4.16900000      -0.07760000
C       -2.18130000      -2.92100000      -0.04680000
H        0.83460000       1.68690000      -0.03800000
H        0.82460000      -0.57650000      -0.37730000
H        0.22280000      -4.79850000       0.04650000
H       -3.23220000      -2.69850000      -0.11950000
