17
Properties=species:S:1:pos:R:3 gdb_33777=T pbc="F F F"
N        0.08090000      -1.16240000      -0.00600000
C        0.02870000      -0.00820000       0.00320000
C       -0.02090000       1.44960000       0.03500000
C       -0.87670000       2.15650000       1.13620000
C       -1.10580000       3.20900000       0.02080000
C        0.07040000       4.20210000      -0.04480000
C        1.37820000       3.43970000      -0.05500000
C        1.35540000       2.10800000      -0.00520000
N       -0.94560000       2.08780000      -0.95820000
H       -1.78580000       1.59850000       1.35790000
H       -0.35690000       2.45350000       2.04610000
H       -2.07540000       3.71030000      -0.02330000
H       -0.01110000       4.83560000      -0.93940000
H        0.03420000       4.88920000       0.81150000
H        2.31110000       3.99280000      -0.10550000
H        2.24650000       1.49120000       0.00370000
H       -0.46720000       2.34960000      -1.81910000
