19
Properties=species:S:1:pos:R:3 gdb_73589=T pbc="F F F"
O       -0.08560000       1.34250000      -0.04570000
C        0.01750000      -0.05950000      -0.03150000
C       -1.31370000      -0.66840000      -0.47830000
O       -1.46550000      -1.87890000       0.25770000
C       -0.86790000      -1.70620000       1.54990000
C        0.31940000      -0.76980000       1.33610000
C        1.64290000      -1.30290000       0.74480000
C        1.42180000      -2.11570000      -0.50090000
C        1.34710000      -0.61390000      -0.59180000
H        0.77750000       1.70790000       0.17670000
H       -2.11790000       0.04750000      -0.24790000
H       -1.35520000      -0.92180000      -1.54090000
H       -1.59280000      -1.25790000       2.24760000
H       -0.60230000      -2.70200000       1.91650000
H        0.47160000      -0.06170000       2.15260000
H        2.57790000      -1.34820000       1.29020000
H        2.32680000      -2.54040000      -0.92520000
H        0.53650000      -2.72810000      -0.62360000
H        2.00240000      -0.04520000      -1.24290000
