15
Properties=species:S:1:pos:R:3 gdb_128543=T pbc="F F F"
C       -0.26240000       1.42410000       0.07690000
O        0.27100000       0.11800000      -0.14270000
C        0.73560000      -0.49870000       0.98560000
C        2.01990000      -0.98560000       1.13220000
O        3.07500000      -0.95610000       0.29690000
N        2.09350000      -1.57760000       2.34010000
N        0.90530000      -1.50670000       3.02300000
C        0.09870000      -0.86310000       2.19720000
O       -1.18380000      -0.58370000       2.51770000
H        0.49920000       2.09750000       0.49150000
H       -0.58800000       1.79520000      -0.89730000
H       -1.11760000       1.38820000       0.76000000
H        2.77720000      -0.52050000      -0.51220000
H        2.87360000      -2.06810000       2.73810000
H       -1.33420000      -0.93700000       3.40410000
