17
Properties=species:S:1:pos:R:3 gdb_69670=T pbc="F F F"
O       -0.28570000       1.44820000      -0.01240000
C       -0.02390000       0.09480000       0.05660000
C       -0.15070000      -0.80840000      -1.13020000
C       -1.06870000      -1.04760000       0.06900000
C       -0.21060000      -1.77130000       1.06840000
C        0.45560000      -2.87160000       1.39510000
C        1.84380000      -2.41570000       1.85340000
O        1.98010000      -1.05320000       1.39300000
C        0.65450000      -0.57050000       1.28290000
H        0.39260000       1.86130000      -0.55830000
H       -0.64470000      -0.33920000      -1.97640000
H        0.61210000      -1.53850000      -1.38160000
H       -2.14600000      -0.99890000      -0.01320000
H        0.18550000      -3.91270000       1.27520000
H        1.97610000      -2.46000000       2.94740000
H        2.64200000      -3.01440000       1.39840000
H        0.36730000       0.02830000       2.16360000
