16
Properties=species:S:1:pos:R:3 gdb_40640=T pbc="F F F"
C       -0.36580000       0.92100000      -0.48680000
O        0.57620000       1.32170000       0.50470000
C        0.46730000      -0.07380000       0.20840000
C       -0.03870000      -0.92830000       1.33100000
C       -1.44890000      -1.44860000       1.45070000
O       -2.23370000      -1.46540000       0.26650000
C       -1.57790000      -2.30100000      -0.58380000
N       -0.52660000      -2.88940000      -0.17820000
C       -0.30530000      -2.41450000       1.17160000
H       -1.41210000       1.02610000      -0.21020000
H       -0.11950000       1.20450000      -1.50950000
H        1.32520000      -0.47820000      -0.32910000
H        0.39570000      -0.67010000       2.29370000
H       -2.04370000      -1.35100000       2.34900000
H       -2.02860000      -2.39640000      -1.56380000
H        0.11140000      -3.12570000       1.87400000
