16
Properties=species:S:1:pos:R:3 gdb_68771=T pbc="F F F"
N       -0.26320000       1.41850000       0.01430000
C       -0.08410000       0.00250000      -0.04740000
C       -0.38490000      -0.81970000       1.20260000
C       -1.29530000      -0.90680000       0.01670000
O       -2.57650000      -0.39150000       0.03790000
C       -1.00970000      -2.03490000      -0.95540000
O        0.36190000      -1.86720000      -1.37530000
C        0.85300000      -0.64210000      -1.02310000
O        1.85960000      -0.18990000      -1.49040000
H        0.39930000       1.84590000       0.65370000
H       -0.09810000       1.83420000      -0.89770000
H        0.27140000      -1.64450000       1.46170000
H       -0.75720000      -0.23780000       2.03870000
H       -2.47420000       0.57110000       0.10680000
H       -1.10490000      -3.03380000      -0.52160000
H       -1.66290000      -1.95460000      -1.83020000
