18
Properties=species:S:1:pos:R:3 gdb_82107=T pbc="F F F"
O        0.35860000       1.41830000       0.16750000
C        0.12960000       0.04310000       0.05200000
C        0.34230000      -0.78980000       1.32410000
N       -0.61290000      -0.18970000       2.29110000
C       -1.07990000      -1.22210000       1.32890000
C       -1.37750000      -0.48060000       0.02090000
C       -2.48880000       0.52800000       0.01510000
C       -3.11920000       0.97610000      -1.23120000
O       -3.78230000       0.04220000      -0.37900000
H        0.03900000       1.65830000       1.04850000
H        0.69550000      -0.31250000      -0.81130000
H        1.23840000      -1.29110000       1.66800000
H       -0.46990000      -0.64220000       3.19180000
H       -1.51720000      -2.14660000       1.68370000
H       -1.51650000      -1.17960000      -0.80860000
H       -2.51590000       1.19980000       0.87120000
H       -3.56770000       1.96710000      -1.28420000
H       -2.77130000       0.57560000      -2.18310000
