13
Properties=species:S:1:pos:R:3 gdb_42307=T pbc="F F F"
O        0.36570000       0.55210000      -1.39280000
C        0.06600000       1.37630000      -0.56830000
C        0.95470000       1.65060000       0.57490000
N        1.68350000       1.88130000       1.44210000
C       -1.21430000       2.21260000      -0.59910000
C       -2.18740000       1.79750000      -1.72470000
O       -3.34900000       1.31140000      -1.00450000
C       -3.06700000       1.48090000       0.29990000
N       -1.95310000       1.97760000       0.65790000
H       -0.91270000       3.26610000      -0.65490000
H       -2.50080000       2.63220000      -2.35400000
H       -1.79140000       0.98950000      -2.34240000
H       -3.85260000       1.16830000       0.97850000
