19
Properties=species:S:1:pos:R:3 gdb_73730=T pbc="F F F"
O       -0.03360000       1.31350000      -0.00350000
C        0.00180000      -0.09020000       0.02420000
C        1.09480000      -0.65750000      -0.86900000
O        1.08600000      -2.06860000      -0.98220000
C       -0.20510000      -2.61580000      -1.21260000
C       -1.16450000      -2.22700000      -0.09270000
C       -0.50020000      -2.22800000       1.32920000
C       -0.52010000      -0.69830000       1.31370000
C       -1.35850000      -0.69850000       0.02430000
H        0.69710000       1.63860000       0.53410000
H        0.97790000      -0.18320000      -1.85860000
H        2.08910000      -0.39290000      -0.48840000
H       -0.60150000      -2.28850000      -2.18890000
H       -0.05570000      -3.69960000      -1.25090000
H       -2.09330000      -2.79720000      -0.15420000
H       -1.18590000      -2.62140000       2.08400000
H        0.46720000      -2.72660000       1.42340000
H       -0.63810000      -0.05510000       2.17860000
H       -2.24190000      -0.12680000      -0.23090000
