18
Properties=species:S:1:pos:R:3 gdb_101504=T pbc="F F F"
C        0.05570000       1.58610000       0.03700000
C        0.03940000       0.05480000       0.03350000
C        0.75110000      -0.51880000       1.26080000
O        2.10020000      -0.08940000       1.22310000
C       -1.40080000      -0.51320000      -0.02660000
C       -2.11800000      -0.15100000      -1.23630000
C       -2.70330000       0.14940000      -2.25020000
C       -3.36900000       0.48750000      -3.39290000
N       -3.93620000       0.77540000      -4.36530000
H        1.08280000       1.94920000       0.10160000
H       -0.40210000       1.98970000      -0.87020000
H       -0.49820000       1.97930000       0.89840000
H        0.58080000      -0.30400000      -0.85020000
H        0.24320000      -0.16860000       2.17570000
H        0.68410000      -1.61910000       1.24780000
H        2.53970000      -0.39220000       2.02270000
H       -1.37300000      -1.60860000       0.04680000
H       -1.97220000      -0.15940000       0.84300000
