16
Properties=species:S:1:pos:R:3 gdb_79113=T pbc="F F F"
O        0.17600000       1.41010000       0.09800000
C       -0.00480000       0.03370000      -0.04820000
C       -1.40330000      -0.56890000      -0.01300000
C       -2.02720000      -0.49740000      -1.38910000
O       -1.56640000       0.47950000      -2.31980000
C       -0.21400000       0.26490000      -2.52050000
N        0.48600000       0.83660000      -3.39780000
C        0.24350000      -0.68130000      -1.44720000
C       -1.00640000      -1.54410000      -1.14020000
H       -0.42080000       1.86350000      -0.50830000
H        0.63540000      -0.44200000       0.69750000
H       -2.00470000      -0.74420000       0.87160000
H       -3.07920000      -0.71760000      -1.50900000
H       -0.08640000       1.46100000      -3.96920000
H        1.21750000      -1.12660000      -1.62190000
H       -1.12370000      -2.61440000      -1.23050000
