16
Properties=species:S:1:pos:R:3 gdb_4138=T pbc="F F F"
C        0.02290000       1.50280000      -0.10690000
N        0.01020000       0.04520000       0.03450000
C       -1.14250000      -0.57280000       0.83200000
C       -0.20240000      -1.79850000       1.02150000
C        0.67130000      -0.53900000       1.28800000
C       -0.49710000       0.00740000       2.08970000
N       -0.67850000       0.70690000       3.12210000
O       -2.05380000       1.00980000       3.29550000
H        1.00830000       1.80360000      -0.47620000
H       -0.71770000       1.78310000      -0.86240000
H       -0.18960000       2.05860000       0.81840000
H       -2.17390000      -0.53810000       0.48950000
H       -0.40190000      -2.45530000       1.86830000
H        0.03900000      -2.32220000       0.09560000
H        1.74180000      -0.46570000       1.47000000
H       -2.03870000       1.52100000       4.11170000
