23
Properties=species:S:1:pos:R:3 gdb_115826=T pbc="F F F"
C       -0.07260000       1.39900000      -0.10760000
O       -0.04000000       0.03470000       0.23890000
C       -1.27630000      -0.63050000       0.08870000
C       -1.70720000      -0.91390000      -1.36480000
C       -2.73880000      -2.04050000      -1.19920000
C       -2.18080000      -2.89620000      -0.05280000
C       -3.05120000      -3.91380000       0.63570000
C       -1.91570000      -4.36810000      -0.24940000
C       -1.18080000      -2.02820000       0.72450000
H        0.91110000       1.81550000       0.12380000
H       -0.27590000       1.55660000      -1.17720000
H       -0.83350000       1.94800000       0.47030000
H       -2.06830000      -0.04300000       0.58560000
H       -2.10690000      -0.03910000      -1.88480000
H       -0.82970000      -1.26790000      -1.91960000
H       -3.70990000      -1.61430000      -0.91520000
H       -2.89770000      -2.61290000      -2.11790000
H       -2.94410000      -4.03850000       1.70880000
H       -4.06630000      -4.04650000       0.27300000
H       -2.16100000      -4.81100000      -1.20990000
H       -1.03850000      -4.79580000       0.22620000
H       -0.15330000      -2.38340000       0.58780000
H       -1.37770000      -2.00360000       1.80000000
