17
Properties=species:S:1:pos:R:3 gdb_11438=T pbc="F F F"
O       -0.08730000       1.43890000       0.08960000
C        0.01890000       0.02970000      -0.05260000
C       -1.38930000      -0.53690000       0.03550000
C       -1.45550000      -2.07960000      -0.05600000
C       -2.63280000      -2.46180000       0.85600000
C       -2.75360000      -1.29220000       1.84210000
O       -3.40340000      -1.25620000       2.86330000
N       -1.99040000      -0.27670000       1.33100000
H        0.79790000       1.81210000       0.12480000
H        0.46370000      -0.24830000      -1.02140000
H        0.63390000      -0.41000000       0.74750000
H       -1.98300000      -0.07400000      -0.76790000
H       -1.56800000      -2.42230000      -1.08640000
H       -0.52460000      -2.50470000       0.33580000
H       -3.57660000      -2.53050000       0.30300000
H       -2.50120000      -3.40340000       1.39140000
H       -2.00470000       0.64770000       1.73240000
