13
Properties=species:S:1:pos:R:3 gdb_6638=T pbc="F F F"
N        0.02570000       1.31690000       0.10830000
C        0.04690000       0.01460000      -0.29690000
O        1.03130000      -0.53270000      -0.75350000
C       -1.23000000      -0.67160000      -0.14260000
C       -2.26180000      -1.28700000      -0.04470000
C       -3.46550000      -2.08990000       0.08450000
C       -3.16320000      -3.54150000       0.48140000
O       -3.86340000      -4.17720000       1.21900000
H        0.88350000       1.84260000       0.06770000
H       -0.78850000       1.72520000       0.53230000
H       -4.17280000      -1.67420000       0.80900000
H       -3.98560000      -2.13190000      -0.88500000
H       -2.24940000      -3.96460000       0.01420000
