19
Properties=species:S:1:pos:R:3 gdb_72834=T pbc="F F F"
O        0.01790000       1.36940000      -0.47320000
C        0.01420000       0.04000000      -0.00290000
C        0.41220000      -1.03550000      -1.06410000
C       -1.04160000      -1.58500000      -1.05090000
C       -1.41770000      -0.56350000       0.07460000
C       -1.53220000      -1.20830000       1.44940000
O       -2.54440000      -1.60880000       1.96410000
C       -0.12820000      -1.26690000       2.06970000
C        0.64240000      -0.11800000       1.39920000
H        0.93490000       1.65190000      -0.56590000
H        0.72060000      -0.59450000      -2.01440000
H        1.17990000      -1.74340000      -0.73880000
H       -1.59150000      -1.41080000      -1.97680000
H       -1.15420000      -2.63730000      -0.77960000
H       -2.25630000       0.09830000      -0.14060000
H       -0.17840000      -1.21500000       3.15890000
H        0.30650000      -2.24270000       1.81340000
H        1.72390000      -0.28590000       1.35870000
H        0.46630000       0.81640000       1.94340000
