20
Properties=species:S:1:pos:R:3 gdb_101310=T pbc="F F F"
C        0.10180000       1.39050000      -0.04210000
O       -0.07070000      -0.00780000      -0.10760000
C        0.47840000      -0.62610000      -1.26110000
C        2.00750000      -0.70460000      -1.20270000
C       -0.15900000      -2.00210000      -1.31470000
C       -1.53370000      -2.16390000      -1.89460000
N       -0.37390000      -2.67710000      -2.58350000
C        0.03600000      -2.28490000      -3.84320000
O       -0.70270000      -2.05140000      -4.76900000
H        1.15170000       1.68410000       0.09830000
H       -0.27870000       1.88780000      -0.94780000
H       -0.47210000       1.74090000       0.81910000
H        0.17280000      -0.06550000      -2.16200000
H        2.45740000       0.29090000      -1.16570000
H        2.32220000      -1.25840000      -0.31260000
H        2.40410000      -1.21400000      -2.08600000
H        0.13120000      -2.65840000      -0.49570000
H       -2.21050000      -2.90420000      -1.47850000
H       -2.00970000      -1.28540000      -2.32260000
H        1.13910000      -2.28780000      -3.93600000
