18
Properties=species:S:1:pos:R:3 gdb_119868=T pbc="F F F"
O        0.10200000       1.41790000      -0.06470000
C        0.05870000       0.00160000      -0.07670000
C       -1.36460000      -0.53720000       0.16880000
C       -1.41980000      -2.02900000       0.13130000
C       -1.59360000      -2.92260000       1.11000000
C       -1.56240000      -4.32820000       0.56710000
N       -1.35070000      -4.10100000      -0.84330000
C       -1.25270000      -2.76870000      -1.16510000
O       -1.07070000      -2.29690000      -2.27110000
H       -0.33900000       1.72990000      -0.86130000
H        0.44350000      -0.41160000      -1.01810000
H        0.72070000      -0.32730000       0.73130000
H       -1.73300000      -0.15410000       1.12530000
H       -2.01450000      -0.14370000      -0.62380000
H       -1.74800000      -2.71710000       2.16180000
H       -0.75430000      -4.92130000       1.02010000
H       -2.50400000      -4.86050000       0.76640000
H       -1.26200000      -4.82570000      -1.53450000
