19
Properties=species:S:1:pos:R:3 gdb_113503=T pbc="F F F"
C       -0.30260000       1.52550000       0.21680000
C        0.27210000       0.14340000      -0.11330000
C        0.95850000      -0.48690000       1.07640000
N        0.08960000      -1.15900000       2.05820000
C        1.02090000      -1.95430000       1.27300000
C        0.70960000      -3.15330000       0.38180000
O        1.90160000      -3.82150000       0.92330000
C        2.16880000      -2.76580000       1.77520000
N        3.04590000      -2.60200000       2.65590000
H        0.48620000       2.21830000       0.52990000
H       -0.80410000       1.96180000      -0.65190000
H       -1.03040000       1.45340000       1.03050000
H       -0.53200000      -0.52060000      -0.45000000
H        0.99110000       0.22110000      -0.93870000
H        1.81290000       0.06200000       1.47170000
H        0.45560000      -1.05590000       3.00310000
H       -0.19860000      -3.70570000       0.63250000
H        0.79860000      -3.01100000      -0.69770000
H        3.66660000      -3.40800000       2.73560000
