21
Properties=species:S:1:pos:R:3 gdb_38739=T pbc="F F F"
C       -0.03070000       1.55090000       0.05450000
C        1.51240000       1.46710000      -0.01070000
C        2.08190000       1.16110000       1.38580000
C        1.75040000      -0.32320000       1.72930000
C        0.24720000      -0.57150000       1.39790000
C       -0.03550000       0.00520000      -0.00040000
C        1.33520000       0.09870000      -0.79030000
C        2.34040000      -0.96360000      -0.50300000
C        2.56020000      -1.18730000       0.79560000
H       -0.47540000       2.02800000       0.93490000
H       -0.45660000       1.99560000      -0.84960000
H        2.05480000       2.26840000      -0.51730000
H        3.16630000       1.30370000       1.41350000
H        1.64210000       1.84090000       2.12600000
H        1.96460000      -0.54270000       2.77780000
H        0.04300000      -1.64580000       1.43420000
H       -0.40120000      -0.08870000       2.13960000
H       -0.87010000      -0.49390000      -0.49790000
H        1.16240000       0.27420000      -1.85330000
H        2.84210000      -1.50040000      -1.30190000
H        3.25970000      -1.92530000       1.17400000
