16
Properties=species:S:1:pos:R:3 gdb_15399=T pbc="F F F"
O        0.00740000       1.38630000       0.03780000
C       -0.06830000      -0.00900000       0.28160000
C       -1.31470000      -0.53090000      -0.42770000
C       -1.45490000      -2.02380000      -0.28690000
O       -1.82130000      -2.52890000       0.99880000
C       -2.75490000      -2.70260000      -0.08080000
C       -4.00110000      -1.98810000      -0.00860000
C       -5.06130000      -1.42300000       0.03230000
H        0.75250000       1.73810000       0.53330000
H        0.82620000      -0.53020000      -0.09930000
H       -0.14490000      -0.23060000       1.35640000
H       -2.19830000      -0.03180000      -0.02120000
H       -1.25090000      -0.27370000      -1.49200000
H       -0.68200000      -2.61790000      -0.78070000
H       -2.84170000      -3.73380000      -0.42310000
H       -5.99440000      -0.91740000       0.07520000
