15
Properties=species:S:1:pos:R:3 gdb_8052=T pbc="F F F"
O       -0.08890000       1.33320000       0.03770000
C        0.04360000      -0.03430000       0.01910000
C        0.62690000      -0.95400000      -1.10270000
C        0.06960000      -1.90320000      -0.00640000
C        0.72450000      -0.97930000       1.06050000
C       -1.19750000      -0.98010000       0.03710000
C       -2.05000000      -1.00840000       1.21430000
N       -2.73930000      -1.03920000       2.14210000
H        0.78180000       1.73080000       0.14780000
H        0.11040000      -0.94720000      -2.06550000
H        1.71270000      -0.94590000      -1.22060000
H        0.05790000      -2.98910000      -0.01780000
H        1.81700000      -0.97180000       1.07860000
H        0.29870000      -0.99910000       2.06500000
H       -1.80290000      -0.96920000      -0.87260000
