16
Properties=species:S:1:pos:R:3 gdb_16630=T pbc="F F F"
C        0.20460000       1.61150000      -0.03640000
C        0.07240000       0.08730000      -0.01040000
C        0.69620000      -0.64730000      -1.17750000
O        2.12830000      -0.55900000      -1.18890000
C        1.52720000      -1.76690000      -0.70110000
C        1.49480000      -1.83220000       0.80620000
C        0.76740000      -0.54080000       1.21890000
O        0.73700000      -0.08290000       2.32970000
H        1.24480000       1.89540000      -0.21840000
H       -0.41670000       2.05010000      -0.82250000
H       -0.10230000       2.02510000       0.92730000
H       -0.99140000      -0.18840000       0.05670000
H        0.22120000      -0.64790000      -2.15530000
H        1.70930000      -2.65520000      -1.29960000
H        0.92510000      -2.70010000       1.16240000
H        2.48500000      -1.87530000       1.26770000
