20
Properties=species:S:1:pos:R:3 gdb_39456=T pbc="F F F"
C       -0.10680000       1.42200000       0.08100000
C        1.24870000       0.74520000       0.14400000
C        2.03380000       0.73700000       1.44850000
C        2.62580000      -0.61160000       1.86530000
O        1.61740000      -1.62590000       1.98300000
C        0.50290000      -1.22960000       2.66820000
N       -0.61190000      -0.99270000       2.13170000
C       -0.67950000      -1.13930000       0.67440000
C       -0.00420000      -0.05860000      -0.16510000
H       -0.52380000       1.73590000       1.03300000
H       -0.34360000       2.08190000      -0.74680000
H        1.88300000       0.88970000      -0.72750000
H        2.86240000       1.45140000       1.36650000
H        1.40630000       1.10520000       2.26660000
H        3.32730000      -0.99770000       1.12060000
H        3.16510000      -0.50310000       2.81870000
H        0.62980000      -1.13960000       3.75100000
H       -0.25100000      -2.10530000       0.37920000
H       -1.74050000      -1.15660000       0.40200000
H       -0.06840000      -0.33190000      -1.21710000
