15
Properties=species:S:1:pos:R:3 gdb_43455=T pbc="F F F"
N       -0.12650000       1.25000000      -0.10870000
C       -0.06590000      -0.00200000      -0.00390000
O        1.09820000      -0.74050000       0.06230000
C        0.83560000      -2.10870000       0.05990000
O        1.71660000      -2.90310000       0.13590000
C       -0.66370000      -2.32560000      -0.06080000
C       -1.23630000      -0.92820000       0.03550000
C       -2.44860000      -0.52120000       0.80100000
N       -2.46580000      -0.54840000      -0.66230000
H        0.79730000       1.68020000      -0.13170000
H       -0.87900000      -2.79180000      -1.02750000
H       -0.99780000      -3.01300000       0.71940000
H       -3.04280000      -1.29280000       1.28350000
H       -2.41390000       0.43950000       1.30610000
H       -2.34460000       0.40060000      -1.01640000
