18
Properties=species:S:1:pos:R:3 gdb_35574=T pbc="F F F"
N        0.32350000      -1.13620000       0.33930000
C        0.19500000       0.00050000       0.16960000
C        0.03710000       1.43080000      -0.00940000
C       -0.40820000       2.26410000       1.23840000
C        0.83900000       3.18170000       1.08630000
C        1.92970000       3.03600000       2.15400000
C        2.61270000       1.71710000       1.75890000
O        2.54500000       1.67150000       0.32970000
C        1.36120000       2.29400000      -0.08750000
H       -0.60060000       1.61290000      -0.87850000
H       -1.37280000       2.75900000       1.11650000
H       -0.42960000       1.68710000       2.16540000
H        0.61060000       4.21980000       0.84390000
H        2.64000000       3.86510000       2.08140000
H        1.53140000       3.01490000       3.17220000
H        3.66700000       1.66240000       2.03900000
H        2.09600000       0.84940000       2.19220000
H        1.53650000       2.74120000      -1.06770000
