20
Properties=species:S:1:pos:R:3 gdb_40783=T pbc="F F F"
C        1.33750000       0.03010000      -0.35590000
C        0.57210000      -1.09780000      -0.95350000
N       -0.07560000      -0.15830000      -0.04340000
C       -0.38020000      -0.65260000       1.29210000
C       -0.51410000       0.49330000       2.32250000
C       -1.48270000      -0.03480000       3.40640000
C       -2.36680000      -1.00780000       2.64820000
O       -2.85040000      -0.48150000       1.40550000
C       -1.72180000      -1.36230000       1.37820000
H        2.06880000      -0.22010000       0.41180000
H        1.57950000       0.91020000      -0.94450000
H        0.24150000      -1.05820000      -1.98720000
H        0.79680000      -2.09810000      -0.58500000
H        0.38670000      -1.37710000       1.63430000
H        0.45130000       0.80180000       2.73010000
H       -0.95500000       1.34990000       1.80920000
H       -0.94880000      -0.57920000       4.19530000
H       -2.05100000       0.76640000       3.88900000
H       -3.04780000      -1.67640000       3.16940000
H       -1.88020000      -2.31100000       0.87100000
