17
Properties=species:S:1:pos:R:3 gdb_18025=T pbc="F F F"
O        0.03370000       1.25740000      -0.41820000
C        0.07070000      -0.09770000       0.00080000
C       -1.33750000      -0.62080000       0.20090000
O       -2.12660000      -0.47970000      -1.02550000
C       -2.56360000      -1.85110000      -0.96190000
C       -1.70040000      -2.83320000      -1.78040000
N       -0.72410000      -2.91850000      -0.65260000
C       -1.62460000      -2.13780000       0.23390000
H       -0.53170000       1.27690000      -1.19960000
H        0.59770000      -0.73860000      -0.71700000
H        0.61910000      -0.12410000       0.94930000
H       -1.83560000      -0.07530000       1.01390000
H       -3.65110000      -1.94660000      -0.98850000
H       -2.22320000      -3.77410000      -1.99410000
H       -1.27990000      -2.43450000      -2.70900000
H       -0.56110000      -3.86330000      -0.32850000
H       -1.90740000      -2.59460000       1.18290000
