15
Properties=species:S:1:pos:R:3 gdb_19772=T pbc="F F F"
C       -0.02430000       1.51320000      -0.09930000
N        1.29740000       2.08890000       0.23180000
C        2.25350000       1.09740000       0.67000000
C        2.24670000      -0.28860000       0.03610000
O        1.08680000      -0.52810000      -0.73810000
C        0.02790000      -0.00580000       0.05890000
O        0.35850000      -0.30780000       1.40690000
C        1.75140000      -0.10010000       1.44890000
H       -0.79780000       1.90790000       0.57330000
H       -0.31250000       1.76060000      -1.12630000
H        1.67290000       2.57200000      -0.57500000
H        3.21000000       1.50960000       0.97720000
H        3.10940000      -0.85700000      -0.28670000
H       -0.90640000      -0.50610000      -0.20330000
H        2.21450000      -0.47080000       2.35350000
