18
Properties=species:S:1:pos:R:3 gdb_87061=T pbc="F F F"
C       -0.24650000       1.48520000       0.16690000
N       -0.09730000       0.03780000       0.29190000
C        1.14110000      -0.56210000      -0.17280000
C        0.81920000      -0.51100000       1.29660000
C        1.60580000       0.39750000       2.10540000
N        2.21740000       1.11410000       2.77660000
C        0.33670000      -1.73820000       2.03490000
C       -0.96960000      -1.69930000       2.73530000
N       -0.80070000      -2.48570000       1.50030000
H        0.69400000       2.03750000       0.30080000
H       -0.64370000       1.70120000      -0.82860000
H       -0.96520000       1.83840000       0.91110000
H        1.04900000      -1.51250000      -0.69110000
H        1.92760000       0.09810000      -0.53310000
H        1.14040000      -2.35030000       2.43720000
H       -1.11770000      -2.27950000       3.64090000
H       -1.53970000      -0.77570000       2.67950000
H       -1.19190000      -1.94590000       0.72780000
