17
Properties=species:S:1:pos:R:3 gdb_44378=T pbc="F F F"
O        0.00320000      -0.11160000      -0.23770000
C       -0.03120000       1.08990000      -0.05880000
C       -1.34600000       1.87860000       0.05150000
N       -1.24090000       3.16910000       0.72930000
C       -0.55380000       3.14370000       2.06690000
C        0.59650000       3.96740000       1.50100000
C        1.12120000       3.27370000       0.24950000
N        1.10210000       1.84980000       0.07410000
C       -0.16810000       4.01410000       0.18100000
H       -1.73700000       2.04210000      -0.95990000
H       -2.06330000       1.23440000       0.56760000
H       -1.15030000       3.66530000       2.81990000
H       -0.29760000       2.14430000       2.43940000
H        1.14390000       4.75390000       2.00370000
H        1.97480000       3.76050000      -0.21260000
H        1.96670000       1.33020000       0.12070000
H       -0.38580000       4.82340000      -0.50760000
