22
Properties=species:S:1:pos:R:3 gdb_5854=T pbc="F F F"
C       -0.04750000       1.60560000       0.10720000
C       -0.00470000       0.07840000       0.00610000
C       -1.40010000      -0.54790000      -0.08020000
O       -2.08620000      -0.14730000      -1.26610000
C       -1.41740000      -2.09610000       0.09420000
C       -2.86600000      -2.59750000       0.09320000
C       -0.59640000      -2.81220000      -0.98040000
O       -0.78480000      -2.42580000       1.33760000
H        0.96020000       2.03190000       0.09980000
H       -0.60830000       2.03610000      -0.72750000
H       -0.53750000       1.92540000       1.03370000
H        0.57280000      -0.21440000      -0.88240000
H        0.51490000      -0.35410000       0.86620000
H       -2.01220000      -0.13800000       0.73740000
H       -1.49110000      -0.29450000      -2.00910000
H       -3.36790000      -2.33850000      -0.84130000
H       -2.89260000      -3.68210000       0.23150000
H       -3.43410000      -2.13320000       0.90950000
H        0.45990000      -2.54060000      -0.91380000
H       -0.67310000      -3.89450000      -0.84750000
H       -0.96370000      -2.56860000      -1.98210000
H       -1.36580000      -2.13330000       2.04840000
