21
Properties=species:S:1:pos:R:3 gdb_76323=T pbc="F F F"
C       -0.22960000       1.45600000      -0.17300000
C       -0.03630000      -0.04880000      -0.04170000
C        1.12710000      -0.60320000      -0.96210000
O        1.58750000       0.13410000      -2.05460000
C        1.97800000      -0.55430000       0.30250000
O        3.12400000      -0.21550000       0.44110000
C        0.75710000      -0.55520000       1.23560000
C        0.86980000       0.35150000       2.45670000
C        0.32110000      -1.97210000       1.64150000
H        0.71240000       2.00180000      -0.05640000
H       -0.61870000       1.69830000      -1.16560000
H       -0.93270000       1.83430000       0.57500000
H       -0.98430000      -0.57300000      -0.18760000
H        0.89680000      -1.62700000      -1.27890000
H        2.42510000       0.53490000      -1.78750000
H        1.19790000       1.35930000       2.19270000
H       -0.09240000       0.42680000       2.97480000
H        1.60010000      -0.05710000       3.16210000
H        1.01680000      -2.40030000       2.37020000
H       -0.67210000      -1.93690000       2.10240000
H        0.26700000      -2.65340000       0.78730000
