19
Properties=species:S:1:pos:R:3 gdb_99658=T pbc="F F F"
C        0.84760000       1.93850000      -0.86360000
O        0.02540000       0.86100000      -1.28030000
C        0.68710000      -0.38230000      -1.34180000
C        1.08410000      -0.85590000       0.00500000
N        1.43970000      -1.13860000       1.06730000
C       -0.21320000      -1.33740000      -2.11060000
N       -0.21640000      -2.75020000      -1.72840000
C       -1.45650000      -1.96780000      -1.58730000
C       -2.03170000      -1.77080000      -0.20590000
H        1.21550000       1.79590000       0.16080000
H        1.70970000       2.06620000      -1.53520000
H        0.22820000       2.83650000      -0.90150000
H        1.63080000      -0.27820000      -1.90620000
H       -0.21890000      -1.08790000      -3.16980000
H       -0.23690000      -3.34980000      -2.54770000
H       -2.21150000      -2.12710000      -2.35750000
H       -1.25080000      -1.68570000       0.55000000
H       -2.64880000      -0.86720000      -0.17650000
H       -2.66490000      -2.62380000       0.06030000
