18
Properties=species:S:1:pos:R:3 gdb_14008=T pbc="F F F"
O       -0.19540000       0.21020000      -0.74480000
C       -0.04140000       1.25760000      -0.16470000
C        1.23930000       1.98170000      -0.04510000
C        1.19830000       3.50920000       0.03880000
C        1.55060000       2.72260000       1.24610000
C        0.78710000       2.71970000       2.58140000
C        2.11670000       3.13680000       3.27700000
C        2.89630000       2.75690000       1.98250000
H       -0.89820000       1.76540000       0.34020000
H        2.07220000       1.52290000      -0.56850000
H        1.97790000       4.04480000      -0.49270000
H        0.21840000       3.97740000      -0.00330000
H       -0.05860000       3.40640000       2.67010000
H        0.45750000       1.72010000       2.88010000
H        2.15620000       4.20910000       3.48190000
H        2.38470000       2.59710000       4.18710000
H        3.36110000       1.76870000       2.04990000
H        3.64060000       3.46980000       1.61810000
