19
Properties=species:S:1:pos:R:3 gdb_52471=T pbc="F F F"
C       -0.01750000       1.47200000       0.01080000
C        0.00680000       0.02040000       0.01040000
C        0.02780000      -1.18960000       0.01160000
C        0.05150000      -2.54970000       0.01290000
C        0.07720000      -3.75950000       0.02200000
C        0.07490000      -5.22470000      -0.02360000
C       -1.37650000      -5.74390000       0.00330000
C        0.81180000      -5.70700000      -1.28910000
O        0.77410000      -5.66710000       1.14760000
H        0.99720000       1.88590000       0.00420000
H       -0.54030000       1.85910000      -0.87120000
H       -0.53010000       1.86020000       0.89820000
H       -1.94550000      -5.37280000      -0.85340000
H       -1.37860000      -6.83980000      -0.03270000
H       -1.87040000      -5.42140000       0.92230000
H        1.84660000      -5.35890000      -1.27310000
H        0.80850000      -6.80290000      -1.32450000
H        0.32700000      -5.33450000      -2.19550000
H        0.77620000      -6.63090000       1.12490000
