16
Properties=species:S:1:pos:R:3 gdb_71023=T pbc="F F F"
N        0.01970000       1.41720000       0.08990000
C        0.02270000      -0.00460000       0.04110000
C        0.69170000      -0.95640000       1.12210000
C       -0.03100000      -1.89490000       0.13360000
N       -0.46600000      -3.22350000      -0.36680000
C       -1.12570000      -2.80410000      -1.37960000
N       -1.13780000      -1.31030000      -1.55730000
C       -1.21050000      -0.92580000      -0.06370000
C        0.31100000      -1.03750000      -1.09640000
H        0.95930000       1.78820000      -0.01370000
H       -0.54150000       1.79690000      -0.66720000
H        1.78470000      -0.98800000       1.13570000
H        0.28690000      -0.88350000       2.13430000
H       -1.65290000      -3.43640000      -2.08470000
H       -2.15010000      -0.89480000       0.49050000
H        1.16610000      -1.14080000      -1.76720000
