25
Properties=species:S:1:pos:R:3 gdb_118968=T pbc="F F F"
C       -0.37380000       1.30470000      -0.18460000
O       -0.18250000      -0.08300000      -0.06880000
C        0.50660000      -0.63980000      -1.17110000
C        0.66660000      -2.14150000      -0.94300000
C        1.49640000      -2.40950000       0.30900000
C       -0.70980000      -2.87090000      -1.05170000
C       -0.38890000      -3.22270000      -2.52800000
C        1.10500000      -2.90460000      -2.24620000
C        1.94780000      -2.22920000      -3.32090000
H        0.58340000       1.84770000      -0.24250000
H       -0.96570000       1.56420000      -1.07730000
H       -0.91420000       1.63800000       0.70500000
H       -0.05510000      -0.43950000      -2.09900000
H        1.49480000      -0.16000000      -1.28120000
H        1.04320000      -1.93720000       1.18500000
H        1.57940000      -3.48450000       0.49990000
H        2.51270000      -2.00960000       0.20230000
H       -0.74580000      -3.75940000      -0.41500000
H       -1.59470000      -2.26380000      -0.85020000
H       -0.62900000      -4.23160000      -2.87280000
H       -0.83300000      -2.51000000      -3.23020000
H        1.61060000      -3.82510000      -1.93020000
H        1.47910000      -1.31400000      -3.69760000
H        2.94450000      -1.96680000      -2.94860000
H        2.08470000      -2.89980000      -4.17680000
