14
Properties=species:S:1:pos:R:3 gdb_16600=T pbc="F F F"
N       -0.07460000       1.22450000      -0.36980000
C       -0.02350000       0.00140000      -0.05150000
N       -1.15810000      -0.80620000       0.20100000
C       -1.38970000      -1.84630000      -0.83030000
C       -0.67860000      -2.20220000       0.41870000
C        0.83930000      -2.25950000       0.41760000
C        1.25600000      -0.82240000       0.10840000
O        2.36610000      -0.37850000      -0.01630000
H        0.88910000       1.56180000      -0.47320000
H       -2.43230000      -2.11600000      -0.96380000
H       -0.81490000      -1.77760000      -1.75160000
H       -1.21340000      -2.74150000       1.19350000
H        1.23940000      -2.54780000       1.39510000
H        1.26340000      -2.94720000      -0.32020000
