19
Properties=species:S:1:pos:R:3 gdb_126671=T pbc="F F F"
C        0.00250000       1.50220000       0.00860000
C       -0.05370000      -0.02770000       0.00250000
C       -1.48300000      -0.54580000       0.01260000
O       -1.42970000      -1.97520000       0.00620000
C       -2.61100000      -2.61420000       0.01310000
N       -3.77930000      -1.98340000       0.02560000
N       -4.68690000      -2.99330000       0.02850000
C       -4.11520000      -4.21880000       0.01840000
C       -2.75230000      -4.02340000       0.00790000
H        1.03720000       1.85650000       0.00110000
H       -0.49980000       1.92380000      -0.86910000
H       -0.48440000       1.91610000       0.89840000
H        0.45840000      -0.42300000      -0.88240000
H        0.47360000      -0.43060000       0.87490000
H       -2.02840000      -0.20350000       0.90160000
H       -2.04370000      -0.19610000      -0.86390000
H       -5.66450000      -2.76390000       0.03760000
H       -4.70750000      -5.12040000       0.01920000
H       -1.97240000      -4.76510000      -0.00200000
