15
Properties=species:S:1:pos:R:3 gdb_28143=T pbc="F F F"
O        0.07680000       1.32840000       0.19760000
C        0.06710000      -0.01430000      -0.00420000
C        0.07960000      -0.77590000      -1.15500000
C        0.05810000      -2.12500000      -0.68230000
C        0.03380000      -2.13020000       0.70880000
N        0.03970000      -0.80500000       1.11920000
C        0.01250000      -3.47090000       1.17080000
C        0.02460000      -4.25020000       0.03020000
N        0.05190000      -3.43580000      -1.09130000
H        0.09620000       1.76310000      -0.66000000
H        0.10080000      -0.40160000      -2.16640000
H        0.02710000      -0.44550000       2.05650000
H       -0.00890000      -3.83860000       2.18460000
H        0.01580000      -5.32290000      -0.07420000
H        0.06640000      -3.76520000      -2.03910000
