18
Properties=species:S:1:pos:R:3 gdb_108039=T pbc="F F F"
O        0.05470000       1.28230000       0.49650000
C        0.01840000       0.03860000      -0.18540000
C       -1.37600000      -0.52220000      -0.23400000
C       -2.58460000       0.25230000      -0.74180000
C       -3.39850000      -0.49290000       0.36740000
C       -3.94250000      -1.77280000      -0.21700000
C       -2.91620000      -2.59880000      -0.42350000
C       -1.68510000      -1.95890000       0.11760000
N       -2.08100000      -0.88190000       1.05750000
H       -0.35810000       1.12510000       1.35460000
H        0.38890000       0.23060000      -1.19880000
H        0.69560000      -0.69310000       0.28270000
H       -2.45490000       1.30880000      -0.50100000
H       -2.90190000       0.13870000      -1.78220000
H       -4.06880000       0.09690000       0.99100000
H       -4.96730000      -1.90330000      -0.54010000
H       -2.92800000      -3.56270000      -0.91450000
H       -0.84510000      -2.56660000       0.44130000
