18
Properties=species:S:1:pos:R:3 gdb_82332=T pbc="F F F"
O        0.51210000       0.72500000      -0.77770000
C        0.12360000      -0.38360000       0.00980000
C        0.53030000      -0.28230000       1.46780000
O       -0.28120000       0.66740000       2.18110000
C       -0.57540000      -0.73330000       2.31900000
C       -1.73200000      -1.20090000       1.45890000
C       -1.40110000      -0.63370000       0.07790000
C       -2.33320000       0.24350000      -0.66970000
N       -2.12620000      -1.15790000      -1.08250000
H        0.20290000       1.51220000      -0.31230000
H        0.62210000      -1.25010000      -0.44530000
H        1.57690000      -0.32170000       1.75710000
H       -0.41380000      -1.14090000       3.31330000
H       -1.75150000      -2.29710000       1.43240000
H       -2.70270000      -0.86250000       1.83300000
H       -3.31370000       0.45950000      -0.25370000
H       -1.90930000       1.02660000      -1.29020000
H       -1.50540000      -1.17610000      -1.89020000
