20
Properties=species:S:1:pos:R:3 gdb_118280=T pbc="F F F"
C        0.00040000       1.35390000       0.23780000
O       -0.04760000      -0.05090000       0.12180000
C       -1.34800000      -0.55540000      -0.11150000
C       -1.23670000      -2.07640000      -0.05960000
O       -0.67200000      -2.47620000       1.17810000
C       -2.59400000      -2.75780000      -0.19810000
C       -2.45920000      -4.29120000      -0.11980000
C       -3.74700000      -4.97040000      -0.23180000
N       -4.77440000      -5.49150000      -0.32440000
H        1.03980000       1.63010000       0.42910000
H       -0.33480000       1.84700000      -0.68690000
H       -0.62550000       1.71370000       1.06840000
H       -2.04210000      -0.20370000       0.66940000
H       -1.73080000      -0.22070000      -1.08920000
H       -0.58440000      -2.39260000      -0.89280000
H        0.07330000      -1.88230000       1.33190000
H       -3.25510000      -2.41360000       0.60410000
H       -3.05320000      -2.47340000      -1.15050000
H       -1.80230000      -4.65640000      -0.91800000
H       -1.98800000      -4.56500000       0.82860000
