17
Properties=species:S:1:pos:R:3 gdb_35611=T pbc="F F F"
C       -0.11800000      -1.25330000       0.18710000
C       -0.05260000      -0.05740000       0.08000000
C        0.00920000       1.39800000      -0.04820000
N       -0.59100000       2.09250000       1.11210000
C        0.46870000       2.63420000       1.83290000
N        1.61470000       2.65070000       1.27330000
C        1.44990000       1.99230000      -0.00340000
C        2.63090000       1.33060000      -0.64850000
C        2.08510000       2.61740000      -1.21990000
H       -0.16790000      -2.31010000       0.28200000
H       -0.50600000       1.69540000      -0.96850000
H       -1.30750000       1.59350000       1.62080000
H        0.27100000       3.06310000       2.81060000
H        3.56530000       1.37240000      -0.10120000
H        2.45570000       0.40760000      -1.19030000
H        1.53850000       2.57400000      -2.15700000
H        2.64960000       3.52830000      -1.05880000
