12
Properties=species:S:1:pos:R:3 gdb_5657=T pbc="F F F"
N       -0.03000000       1.34560000       0.01010000
C        1.27760000       1.80610000      -0.00010000
C        2.17000000       0.74540000      -0.01480000
C        1.34080000      -0.39910000      -0.01320000
C        0.02270000      -0.02070000       0.00180000
N       -0.81430000      -1.11060000       0.00380000
C        0.03170000      -2.09970000      -0.01010000
O        1.36300000      -1.76700000      -0.02120000
H       -0.85290000       1.92110000       0.02140000
H        1.47810000       2.86540000       0.00390000
H        3.24430000       0.82220000      -0.02480000
H       -0.19020000      -3.15470000      -0.01390000
