20
Properties=species:S:1:pos:R:3 gdb_90804=T pbc="F F F"
C        0.32350000       1.54180000      -0.03330000
C       -0.05910000       0.05590000       0.00410000
C        0.31710000      -0.67760000      -1.30080000
C        1.54810000      -1.54350000      -1.16030000
C        2.59930000      -1.40610000      -0.12430000
C        2.08540000      -0.90970000       1.23870000
C        0.60270000      -0.63340000       1.18330000
C        1.10250000      -2.05450000       1.19240000
N        1.66270000      -2.58900000      -0.11420000
H        1.40080000       1.66110000      -0.19250000
H       -0.19900000       2.06030000      -0.84420000
H        0.06800000       2.04210000       0.90720000
H       -1.14490000      -0.01040000       0.13960000
H       -0.50480000      -1.32600000      -1.62760000
H        0.47980000       0.04340000      -2.11040000
H        1.90990000      -1.94450000      -2.10580000
H        3.65540000      -1.54370000      -0.33600000
H        2.73180000      -0.58290000       2.04180000
H        0.21110000      -0.34010000       2.15560000
H        0.82400000      -2.78510000       1.94130000
