19
Properties=species:S:1:pos:R:3 gdb_17617=T pbc="F F F"
C        0.00430000       1.40770000       0.03000000
N       -0.04420000      -0.04580000       0.05000000
C        0.27940000      -0.67250000       1.31890000
C       -0.32130000      -0.71220000      -1.11930000
O       -0.63160000      -0.11500000      -2.14290000
C       -0.23620000      -2.20950000      -1.11870000
C       -1.32580000      -2.94760000      -1.88250000
C        0.04750000      -2.85950000      -2.46050000
H        1.00050000       1.76670000       0.31930000
H       -0.22470000       1.74220000      -0.97990000
H       -0.72780000       1.83030000       0.72950000
H       -0.08560000      -0.03440000       2.13020000
H       -0.21090000      -1.63980000       1.42440000
H        1.36140000      -0.80630000       1.46120000
H        0.17340000      -2.71000000      -0.25280000
H       -1.66810000      -3.89160000      -1.47380000
H       -2.09120000      -2.32440000      -2.32910000
H        0.19280000      -2.17460000      -3.28670000
H        0.67480000      -3.74350000      -2.45760000
