14
Properties=species:S:1:pos:R:3 gdb_3310=T pbc="F F F"
O       -0.65600000       0.77030000      -0.48850000
C        0.19340000       0.95820000       0.34590000
C        1.33310000       1.93540000       0.20810000
C        1.28770000       3.01220000      -0.89870000
C        1.26870000       4.03390000       0.23730000
C        0.14800000       3.79060000       1.15920000
N        1.37250000       2.96840000       1.32470000
H        0.17850000       0.42190000       1.32200000
H        2.27410000       1.37490000       0.23660000
H        2.19730000       3.03840000      -1.49970000
H        0.41730000       2.99510000      -1.55880000
H        1.87510000       4.93210000       0.28260000
H        0.01170000       4.48210000       1.98440000
H       -0.76870000       3.33310000       0.79380000
