23
Properties=species:S:1:pos:R:3 gdb_89379=T pbc="F F F"
C        0.54380000       1.46730000       0.12240000
C       -0.07750000       0.08260000      -0.03750000
C        0.42230000      -0.70720000      -1.27790000
C        1.13490000      -1.93280000      -0.71770000
C        1.11040000      -3.20260000      -1.53520000
C        2.31650000      -1.63860000       0.20030000
C        0.93600000      -1.87430000       0.77370000
C        0.62030000      -3.03200000       1.67950000
O        0.20400000      -0.72240000       1.11940000
H        1.63720000       1.41700000       0.12880000
H        0.23630000       2.11890000      -0.70290000
H        0.21750000       1.92370000       1.06120000
H       -1.16870000       0.19930000      -0.08050000
H       -0.42030000      -1.02520000      -1.90100000
H        1.07460000      -0.09180000      -1.90780000
H        1.65530000      -3.07350000      -2.47790000
H        1.57830000      -4.03540000      -1.00160000
H        0.08420000      -3.49820000      -1.78410000
H        3.05320000      -2.42830000       0.31670000
H        2.72600000      -0.63480000       0.23560000
H        1.19820000      -3.91760000       1.40250000
H        0.86500000      -2.78090000       2.71680000
H       -0.44500000      -3.28110000       1.63520000
