21
Properties=species:S:1:pos:R:3 gdb_100655=T pbc="F F F"
C       -0.20730000       1.26820000       0.05770000
O       -0.01250000      -0.12910000       0.00510000
C        0.63470000      -0.60450000      -1.16640000
C        2.15250000      -0.59880000      -0.98410000
C        0.02660000      -2.02350000      -1.41660000
C        0.67390000      -2.72770000      -2.62110000
N        0.09500000      -2.90660000      -0.24890000
C       -1.40760000      -1.80810000      -1.72400000
N       -2.51300000      -1.62100000      -2.00240000
H        0.74250000       1.82250000       0.04640000
H       -0.82940000       1.61810000      -0.77820000
H       -0.72360000       1.48280000       0.99600000
H        0.36600000       0.03220000      -2.02300000
H        2.45440000      -1.29240000      -0.19360000
H        2.67380000      -0.86420000      -1.90760000
H        2.48620000       0.40110000      -0.69310000
H        1.72310000      -2.95040000      -2.40750000
H        0.15580000      -3.66770000      -2.81910000
H        0.62630000      -2.10280000      -3.51640000
H        1.05620000      -3.19940000      -0.10250000
H       -0.19210000      -2.38240000       0.57320000
