16
Properties=species:S:1:pos:R:3 gdb_23439=T pbc="F F F"
O       -0.31570000       1.36820000      -0.21520000
N       -0.14850000      -0.01730000      -0.36400000
C       -1.16520000      -0.64350000       0.04870000
C       -2.51900000      -0.29640000       0.64010000
N       -2.86150000      -1.76620000       0.58690000
C       -3.69580000      -2.15070000      -0.48240000
N       -3.19570000      -2.79790000      -1.45680000
C       -1.74650000      -2.91880000      -1.21700000
C       -1.48120000      -2.12370000       0.08750000
H        0.50990000       1.71520000      -0.57070000
H       -2.48920000       0.09560000       1.66090000
H       -3.15670000       0.34720000       0.02550000
H       -4.75050000      -1.89290000      -0.42610000
H       -1.47940000      -3.97370000      -1.09520000
H       -1.19020000      -2.53610000      -2.07830000
H       -0.89470000      -2.68480000       0.81950000
