17
Properties=species:S:1:pos:R:3 gdb_8445=T pbc="F F F"
C       -0.11220000       1.49420000       0.00570000
C        0.07920000       0.00620000       0.03510000
C        1.00390000      -0.80800000      -0.90710000
C        0.65270000      -1.93800000       0.12220000
C        0.68540000      -0.80720000       1.20840000
C       -0.83630000      -2.00890000      -0.10190000
N       -1.58730000      -3.01330000      -0.21460000
O       -1.20690000      -0.68090000      -0.15820000
H        0.84640000       2.00060000       0.14970000
H       -0.53160000       1.81020000      -0.95410000
H       -0.79550000       1.81090000       0.79930000
H        0.68070000      -0.93220000      -1.94300000
H        2.04990000      -0.50080000      -0.85270000
H        1.19080000      -2.87740000       0.20360000
H        1.70110000      -0.49980000       1.46410000
H        0.07160000      -0.93060000       2.10330000
H       -2.55600000      -2.72110000      -0.36050000
