16
Properties=species:S:1:pos:R:3 gdb_123613=T pbc="F F F"
C        0.05530000       1.48220000      -0.02280000
C        1.31590000       0.68720000       0.03070000
N       -0.02460000       0.01680000      -0.02420000
C       -0.19170000      -0.60840000      -1.36720000
C        1.08860000      -0.26860000      -2.07640000
C        1.95990000       0.43630000      -1.28070000
C        3.09520000       0.65070000      -2.08610000
N        2.92950000       0.11780000      -3.29930000
N        1.68850000      -0.43220000      -3.27370000
H       -0.34300000       1.94850000       0.87490000
H       -0.14530000       2.01970000      -0.94790000
H        1.86750000       0.58650000       0.96050000
H       -0.33150000      -1.68870000      -1.23760000
H       -1.09180000      -0.21800000      -1.85630000
H        4.02000000       1.15920000      -1.85740000
H        1.35970000      -0.91230000      -4.09390000
