23
Properties=species:S:1:pos:R:3 gdb_77898=T pbc="F F F"
C        0.09280000       1.67270000      -0.31320000
C        0.25260000       0.17000000      -0.15990000
C        1.50040000      -0.63790000      -0.41410000
C        2.75630000      -0.00910000       0.17260000
O        3.14130000       1.21850000      -0.42210000
C        2.09260000      -0.00430000       1.60160000
C        2.03090000       1.27320000       2.43270000
C        0.82660000      -0.62690000       0.98340000
C        0.04790000      -1.71740000       1.66800000
H        1.02490000       2.20680000      -0.14120000
H       -0.22660000       1.90360000      -1.33590000
H       -0.67660000       2.05850000       0.36590000
H       -0.61140000      -0.36270000      -0.55990000
H        1.51730000      -1.43240000      -1.15230000
H        3.59650000      -0.71550000       0.14510000
H        3.95510000       1.51130000       0.00060000
H        2.59170000      -0.77590000       2.20110000
H        1.57820000       2.10680000       1.89500000
H        1.44800000       1.10820000       3.34560000
H        3.03640000       1.58220000       2.74340000
H       -0.54960000      -1.32020000       2.49820000
H       -0.64320000      -2.20960000       0.97580000
H        0.71320000      -2.48510000       2.08130000
