21
Properties=species:S:1:pos:R:3 gdb_73865=T pbc="F F F"
C       -0.04870000       1.51370000       0.12020000
C        0.03030000       0.02320000       0.00560000
C        0.01510000      -0.73120000      -1.10370000
C       -0.08480000      -0.28900000      -2.53040000
C        0.09120000      -2.20840000      -0.77960000
C        0.35600000      -2.23370000       0.72480000
C        0.29280000      -3.44320000       1.54820000
O        1.55410000      -2.89340000       1.15710000
C        0.11900000      -0.82210000       1.25870000
H        0.83700000       1.91540000       0.62940000
H       -0.12950000       2.00850000      -0.85030000
H       -0.91470000       1.81560000       0.72400000
H       -0.15420000       0.79630000      -2.63250000
H        0.78620000      -0.62580000      -3.10740000
H       -0.96550000      -0.72880000      -3.01690000
H       -0.84480000      -2.72270000      -1.04270000
H        0.89570000      -2.72730000      -1.31530000
H        0.05650000      -3.36550000       2.60970000
H        0.03580000      -4.39870000       1.09050000
H        0.93990000      -0.52480000       1.92310000
H       -0.80530000      -0.75460000       1.85110000
