21
Properties=species:S:1:pos:R:3 gdb_57444=T pbc="F F F"
C        0.67340000       2.07510000      -0.36490000
C       -0.08330000       0.73920000      -0.33010000
C       -0.22610000       0.24350000       1.12160000
C       -1.48420000       0.93660000      -0.95090000
C        0.57950000      -0.37380000      -1.13700000
O        1.09720000      -0.10560000      -2.43450000
C        2.01340000      -0.59930000      -1.46860000
C        3.18750000       0.24210000      -1.07500000
O        3.46920000       1.31930000      -1.52950000
H        1.59290000       2.04220000       0.22370000
H        0.94070000       2.35250000      -1.38630000
H        0.04100000       2.86210000       0.05840000
H       -0.77110000       0.97830000       1.72270000
H       -0.77800000      -0.70180000       1.17320000
H        0.75300000       0.08960000       1.58760000
H       -1.40490000       1.28680000      -1.98440000
H       -2.05920000       0.00390000      -0.95170000
H       -2.05080000       1.67930000      -0.38050000
H       -0.00200000      -1.30080000      -1.09620000
H        2.30340000      -1.64790000      -1.59800000
H        3.83710000      -0.26250000      -0.32210000
