14
Properties=species:S:1:pos:R:3 gdb_52351=T pbc="F F F"
O       -0.18040000       0.19440000       0.60390000
C        0.07410000       1.06410000      -0.18380000
C        1.33990000       1.90420000      -0.11360000
O        1.31180000       2.82120000      -1.18410000
C        2.44730000       3.65890000      -1.21740000
C        2.34780000       4.57520000      -2.34420000
C        2.29190000       5.34670000      -3.27010000
C        2.22630000       6.21900000      -4.31900000
N        2.17270000       6.96160000      -5.21020000
H       -0.59370000       1.32950000      -1.03160000
H        1.37650000       2.41330000       0.86360000
H        2.21510000       1.23580000      -0.16710000
H        2.53670000       4.24040000      -0.28380000
H        3.37300000       3.06590000      -1.31280000
