22
Properties=species:S:1:pos:R:3 gdb_6479=T pbc="F F F"
C        0.49140000       1.78340000      -0.00750000
O        0.54440000       0.39340000      -0.23790000
C        0.63640000      -0.41650000       0.92120000
C        1.95340000      -0.20860000       1.66830000
C       -0.61740000      -0.43630000       1.85390000
C       -0.57570000      -1.99120000       1.81890000
C       -1.88790000      -2.74980000       1.69050000
C        0.35430000      -1.89920000       0.57630000
H        1.44000000       2.18850000       0.37280000
H        0.27740000       2.25640000      -0.96950000
H       -0.30710000       2.05380000       0.69980000
H        2.02080000       0.79170000       2.10760000
H        2.05030000      -0.93070000       2.48490000
H        2.79880000      -0.34630000       0.98640000
H       -0.54370000       0.05600000       2.82740000
H       -1.49350000      -0.05240000       1.32190000
H       -0.01660000      -2.36960000       2.68150000
H       -2.46620000      -2.38790000       0.83280000
H       -1.71580000      -3.82260000       1.54730000
H       -2.50810000      -2.62900000       2.58600000
H       -0.21190000      -1.95730000      -0.35740000
H        1.21180000      -2.57490000       0.51980000
