14
Properties=species:S:1:pos:R:3 gdb_42234=T pbc="F F F"
N        0.05630000       1.05500000       0.61860000
C       -0.01140000      -0.04920000       0.03740000
C       -1.13640000      -0.99650000      -0.32870000
C        0.01790000      -1.83660000      -0.94220000
O        0.97900000      -0.83900000      -0.52410000
C        0.25510000      -3.19120000      -0.29110000
O        1.05820000      -3.37080000       0.59190000
C       -0.60290000      -4.24290000      -0.80940000
C       -1.32870000      -5.09260000      -1.25700000
H        1.01800000       1.39310000       0.67670000
H       -1.65390000      -1.44570000       0.52030000
H       -1.86300000      -0.60010000      -1.03820000
H       -0.00850000      -1.93600000      -2.03170000
H       -1.96100000      -5.85740000      -1.63920000
