16
Properties=species:S:1:pos:R:3 gdb_27057=T pbc="F F F"
C       -0.92320000       1.01820000      -0.48590000
C       -0.21240000      -0.26750000      -0.22760000
C        0.41180000      -1.22590000      -0.99830000
N        0.59580000      -1.36600000      -2.38390000
C       -0.10960000      -0.84720000      -3.42430000
O       -1.02910000      -0.05720000      -3.36130000
N        0.98380000      -2.20800000      -0.22370000
C        0.71260000      -1.87300000       1.01520000
N       -0.00470000      -0.72240000       1.06730000
H       -0.29640000       1.88410000      -0.23590000
H       -1.19860000       1.07840000      -1.53770000
H       -1.83700000       1.08990000       0.11660000
H        1.27290000      -2.08190000      -2.60660000
H        0.27390000      -1.23840000      -4.38640000
H        1.00450000      -2.42180000       1.89750000
H       -0.34170000      -0.26310000       1.89720000
