21
Properties=species:S:1:pos:R:3 gdb_119631=T pbc="F F F"
O       -0.13840000       1.44150000       0.30360000
C       -0.04530000       0.02480000       0.30940000
C       -1.35590000      -0.52140000      -0.25240000
C       -1.39690000      -2.02750000      -0.28300000
C       -0.52510000      -2.83120000      -1.24090000
C       -1.04760000      -4.28210000      -1.11400000
C       -2.53660000      -4.15020000      -0.71000000
C       -2.58740000      -2.83140000       0.03350000
O       -1.53470000      -2.67880000       0.99960000
H        0.66240000       1.79640000       0.70010000
H        0.80310000      -0.31880000      -0.30390000
H        0.10140000      -0.36780000       1.32660000
H       -2.17700000      -0.14390000       0.36510000
H       -1.49910000      -0.12540000      -1.26520000
H       -0.67020000      -2.44040000      -2.25610000
H        0.54270000      -2.75430000      -1.01280000
H       -0.91140000      -4.85770000      -2.03250000
H       -0.50170000      -4.79560000      -0.32000000
H       -3.19060000      -4.08620000      -1.58890000
H       -2.88380000      -4.99300000      -0.10430000
H       -3.53770000      -2.37860000       0.30820000
