19
Properties=species:S:1:pos:R:3 gdb_29639=T pbc="F F F"
C        0.07470000       1.43830000      -0.00330000
N        0.03750000      -0.00490000       0.04420000
C       -0.06680000      -0.79250000      -1.08220000
N       -0.14280000      -0.38270000      -2.28320000
O       -0.07160000      -2.09580000      -0.64420000
C        0.02970000      -2.09620000       0.74690000
C        0.04050000      -3.42220000       1.40730000
C        0.09710000      -0.82820000       1.18140000
C        0.21300000      -0.26790000       2.55520000
H        1.00950000       1.83050000       0.41330000
H        0.00610000       1.72350000      -1.05380000
H       -0.76620000       1.88060000       0.54290000
H       -0.21170000      -1.16630000      -2.92570000
H        0.88370000      -4.03350000       1.06380000
H        0.12260000      -3.30820000       2.49050000
H       -0.87650000      -3.98390000       1.19200000
H        0.24410000      -1.07250000       3.29240000
H        1.12380000       0.33110000       2.67380000
H       -0.63600000       0.38060000       2.80210000
