17
Properties=species:S:1:pos:R:3 gdb_9514=T pbc="F F F"
C       -0.11010000       1.60490000      -0.00570000
C       -0.03790000       0.08110000      -0.05200000
C       -1.42020000      -0.57050000       0.13030000
O       -1.95670000      -0.26990000       1.39870000
C        0.87560000      -0.53500000      -1.14140000
O        1.76360000      -1.07300000      -0.10300000
C        0.96410000      -0.56180000       0.88790000
N        1.01260000      -0.67280000       2.13950000
H        0.88590000       2.05710000      -0.01400000
H       -0.66800000       1.98390000      -0.86910000
H       -0.62980000       1.92020000       0.90140000
H       -2.12410000      -0.18080000      -0.61430000
H       -1.33530000      -1.65830000      -0.02960000
H       -1.28710000      -0.51480000       2.05540000
H        0.44950000      -1.34590000      -1.73780000
H        1.40820000       0.17380000      -1.77920000
H        1.80470000      -1.23700000       2.45010000
