16
Properties=species:S:1:pos:R:3 gdb_34039=T pbc="F F F"
N        0.01670000      -1.08880000       0.06440000
C       -0.00460000       0.06630000       0.02760000
C        0.00090000       1.50860000      -0.05160000
C        0.50820000       2.14870000      -1.32680000
C        1.34550000       2.22030000      -0.06980000
C        1.41280000       3.50620000       0.74930000
O        0.36790000       3.57410000       1.71490000
C       -0.87440000       3.38110000       1.12530000
O       -1.06840000       2.04980000       0.66770000
H        0.82750000       1.49340000      -2.12810000
H       -0.00100000       3.05110000      -1.65050000
H        2.22290000       1.58570000      -0.02760000
H        2.34510000       3.54670000       1.31500000
H        1.36990000       4.39100000       0.09550000
H       -1.63820000       3.53850000       1.88790000
H       -1.02290000       4.08890000       0.28960000
