15
Properties=species:S:1:pos:R:3 gdb_16196=T pbc="F F F"
O        0.10040000       0.05610000      -0.12660000
C        0.02640000       1.25550000      -0.01350000
C       -1.24410000       2.10930000       0.07230000
C       -0.70890000       3.51960000       0.00880000
C        0.62620000       3.56100000      -0.03750000
C        1.20450000       2.19850000       0.01190000
C        2.43610000       1.76610000       0.74900000
N        2.43600000       1.81590000      -0.70710000
H       -1.93260000       1.85610000      -0.74290000
H       -1.77970000       1.88810000       1.00510000
H       -1.35830000       4.38670000       0.00360000
H        1.23640000       4.45360000      -0.09430000
H        3.04060000       2.52370000       1.24030000
H        2.39440000       0.79800000       1.24170000
H        2.29070000       0.87220000      -1.06920000
