18
Properties=species:S:1:pos:R:3 gdb_83033=T pbc="F F F"
C       -0.23290000       1.50920000       0.06030000
N        0.03470000       0.08680000      -0.06080000
C        0.67580000      -0.48050000      -1.23280000
C        1.49080000       0.41670000      -2.17150000
C        2.59740000       0.94620000      -1.29570000
C        2.55620000       0.41540000      -0.06010000
C        3.52730000       0.70160000       0.99920000
O        3.48300000       0.22920000       2.11340000
C        1.37490000      -0.48770000       0.10480000
H        0.56070000       2.17420000      -0.31070000
H       -1.15280000       1.73440000      -0.48860000
H       -0.40190000       1.74250000       1.11590000
H        0.19280000      -1.35970000      -1.64960000
H        1.89780000      -0.16480000      -3.00870000
H        0.89780000       1.22330000      -2.62240000
H        3.31950000       1.68530000      -1.62970000
H        4.34320000       1.39770000       0.69990000
H        1.44290000      -1.34120000       0.77050000
