21
Properties=species:S:1:pos:R:3 gdb_92648=T pbc="F F F"
C       -0.05360000       1.60680000      -0.02480000
C        0.08640000       0.09450000       0.01740000
C        1.09410000      -0.61950000      -0.93000000
C        1.38790000      -1.62610000       0.21650000
C        2.80850000      -2.08900000       0.50110000
O        3.62020000      -1.01360000       0.96120000
C        3.01520000      -0.36980000       2.04800000
O        1.83710000       0.30180000       1.68770000
C        0.81800000      -0.57230000       1.21370000
H        0.91280000       2.08880000       0.14100000
H       -0.43920000       1.92970000      -0.99800000
H       -0.74600000       1.96660000       0.74420000
H       -0.89620000      -0.38190000      -0.08140000
H        0.71330000      -1.02240000      -1.87120000
H        1.96440000       0.01010000      -1.13330000
H        0.71820000      -2.48960000       0.15590000
H        2.79860000      -2.88880000       1.26140000
H        3.29340000      -2.48280000      -0.39760000
H        2.80850000      -1.10300000       2.85190000
H        3.71360000       0.39060000       2.40320000
H        0.21680000      -0.93240000       2.06000000
