17
Properties=species:S:1:pos:R:3 gdb_57697=T pbc="F F F"
C        0.16830000       1.57600000       0.00450000
C       -0.00570000       0.05180000      -0.00580000
O        0.63890000      -0.42510000       1.17020000
C       -1.48910000      -0.39420000      -0.04720000
C       -2.27280000       0.06720000       1.19750000
C       -3.59910000      -0.53990000       1.25900000
N       -4.64500000      -1.02950000       1.29500000
C        0.66740000      -0.50890000      -1.20260000
N        1.18660000      -0.97570000      -2.12330000
H        1.22990000       1.82630000      -0.03070000
H       -0.33280000       2.03030000      -0.85330000
H       -0.24840000       1.98640000       0.92680000
H        0.69340000      -1.38720000       1.12800000
H       -1.96100000      -0.01540000      -0.95860000
H       -1.52050000      -1.48700000      -0.10850000
H       -1.71340000      -0.20010000       2.09970000
H       -2.39230000       1.15530000       1.20520000
