21
Properties=species:S:1:pos:R:3 gdb_70760=T pbc="F F F"
O       -0.09140000       1.37080000       0.05940000
C        0.03230000      -0.02860000       0.01180000
C       -0.46410000      -0.74480000      -1.23230000
C       -1.28220000      -0.74670000       0.03350000
O       -1.39850000      -1.94420000       0.73370000
C       -1.41750000      -1.75890000       2.14980000
C       -0.01950000      -1.74000000       2.77460000
C        0.90350000      -0.59440000       2.32770000
C        1.18870000      -0.59610000       0.81600000
H        0.62210000       1.74820000      -0.46770000
H       -0.83180000      -0.14160000      -2.05490000
H        0.02150000      -1.67350000      -1.51120000
H       -2.17110000      -0.11440000       0.04980000
H       -1.96600000      -0.83810000       2.39910000
H       -1.98620000      -2.60310000       2.55480000
H       -0.14510000      -1.70330000       3.86490000
H        0.46460000      -2.69940000       2.54920000
H        0.47030000       0.37510000       2.60350000
H        1.84860000      -0.67980000       2.87710000
H        1.41080000      -1.61560000       0.48360000
H        2.08220000       0.00400000       0.59890000
