15
Properties=species:S:1:pos:R:3 gdb_49884=T pbc="F F F"
N        0.89060000      -0.11980000       0.34210000
C       -0.25160000       0.35510000       0.04300000
N       -1.35830000      -0.46650000       0.02930000
C       -1.30350000      -1.88340000       0.34410000
C       -2.75600000      -2.32520000       0.18740000
O       -3.22210000      -3.42350000       0.34220000
N       -3.44790000      -1.18170000      -0.17740000
C       -2.64700000      -0.03920000      -0.28590000
N       -2.94830000       1.15340000      -0.59660000
H        1.59580000       0.61320000       0.30590000
H       -0.50190000       1.38410000      -0.22160000
H       -0.64910000      -2.43240000      -0.34030000
H       -0.94360000      -2.06550000       1.36160000
H       -4.44000000      -1.18030000      -0.35330000
H       -3.94000000       1.25980000      -0.79120000
