15
Properties=species:S:1:pos:R:3 gdb_2888=T pbc="F F F"
C        0.13620000      -1.14510000      -0.32540000
C        0.03440000       0.03840000      -0.14040000
C       -0.09350000       1.47900000       0.09300000
C       -0.64960000       1.80800000       1.51650000
C        0.39660000       2.78040000       2.09400000
C        1.64860000       2.40090000       1.30160000
O        1.17270000       2.14090000      -0.01310000
H        0.22870000      -2.18870000      -0.49870000
H       -0.72990000       1.90780000      -0.68940000
H       -1.65060000       2.24000000       1.46310000
H       -0.71000000       0.89520000       2.11270000
H        0.12370000       3.81810000       1.87970000
H        0.52130000       2.67500000       3.17450000
H        2.39390000       3.19710000       1.23000000
H        2.13130000       1.50750000       1.72880000
