7
Properties=species:S:1:pos:R:3 gdb_34=T pbc="F F F"
O       -0.03740000       1.44550000       0.01010000
C        0.01290000       0.03440000       0.00210000
C       -1.35750000      -0.48870000       0.01240000
N       -2.42140000      -0.93690000       0.02020000
H        0.86900000       1.76970000       0.00420000
H        0.51690000      -0.36330000      -0.89220000
H        0.53390000      -0.37280000       0.88220000
