19
Properties=species:S:1:pos:R:3 gdb_65933=T pbc="F F F"
C       -0.11590000       1.57070000       0.06990000
C       -0.01820000       0.03910000       0.02830000
C        1.14110000      -0.48800000      -0.89370000
C        2.00840000      -0.77660000       0.36540000
C        0.76230000      -0.57530000       1.23130000
C        0.57440000      -0.28370000       2.66700000
N        0.26110000      -1.61630000       2.11310000
C       -1.32750000      -0.56120000      -0.19190000
N       -2.36430000      -1.05940000      -0.31730000
H        0.87160000       1.99980000       0.26130000
H       -0.48410000       1.96130000      -0.88330000
H       -0.79380000       1.90310000       0.86070000
H        0.86180000      -1.39400000      -1.43260000
H        1.52150000       0.24810000      -1.60410000
H        2.45030000      -1.77190000       0.43020000
H        2.78660000      -0.02830000       0.53780000
H        1.43180000      -0.25390000       3.33470000
H       -0.24620000       0.37020000       2.95380000
H       -0.74500000      -1.73500000       2.00170000
