20
Properties=species:S:1:pos:R:3 gdb_89571=T pbc="F F F"
C       -0.93070000       1.06310000      -0.24200000
C        0.12960000      -0.00130000      -0.00900000
C        1.47860000       0.10640000      -0.77460000
C        2.22870000      -0.32280000       0.51860000
C        0.94100000       0.02860000       1.31700000
C        2.69240000      -1.80370000       0.58270000
O        4.09210000      -1.72930000       0.94520000
C        4.35380000      -0.40670000       1.06130000
N        3.43530000       0.44190000       0.85720000
H       -0.51420000       2.06650000      -0.09760000
H       -1.33110000       1.01110000      -1.26080000
H       -1.77120000       0.94740000       0.45160000
H       -0.30660000      -0.99610000      -0.15820000
H        1.62130000      -0.51360000      -1.66480000
H        1.72370000       1.14350000      -1.02050000
H        1.01870000       1.04140000       1.72210000
H        0.64840000      -0.65450000       2.12010000
H        2.17570000      -2.38930000       1.34910000
H        2.61910000      -2.32520000      -0.37640000
H        5.37830000      -0.17720000       1.33350000
