20
Properties=species:S:1:pos:R:3 gdb_59122=T pbc="F F F"
C       -0.06790000       1.57340000      -0.04370000
C       -0.01870000       0.04360000      -0.00800000
O        0.79670000      -0.41980000       1.06430000
C       -1.41040000      -0.56980000       0.14790000
C       -1.42690000      -2.09420000       0.26840000
C       -1.45040000      -2.04960000       1.74380000
C       -1.99690000      -0.57850000       1.59360000
C       -3.36050000      -1.25100000       1.37450000
N       -2.66120000      -2.53330000       1.02300000
H        0.93940000       1.98910000      -0.16510000
H       -0.67410000       1.92860000      -0.88310000
H       -0.48980000       1.97060000       0.88440000
H        0.39430000      -0.31120000      -0.96890000
H        1.65430000       0.00930000       0.99020000
H       -2.05950000      -0.13150000      -0.62190000
H       -0.98710000      -2.83130000      -0.39140000
H       -0.92370000      -2.59590000       2.51310000
H       -1.84600000       0.26170000       2.26810000
H       -3.92490000      -1.41280000       2.29670000
H       -4.02410000      -0.84600000       0.60000000
