17
Properties=species:S:1:pos:R:3 gdb_87476=T pbc="F F F"
C       -0.17500000       1.44350000      -0.02960000
N        0.04160000       0.00360000       0.02930000
C        1.41090000      -0.49210000      -0.22340000
C        0.80050000      -0.52420000       1.11570000
C        1.19920000       0.09060000       2.47500000
N       -0.15160000      -0.43680000       2.97400000
C        0.37800000      -1.60350000       2.12790000
C        1.73070000      -1.32420000       2.83340000
O        2.56880000      -1.86020000       3.48790000
H        0.69150000       2.03130000       0.31500000
H       -0.39560000       1.72980000      -1.06210000
H       -1.03590000       1.69760000       0.59460000
H        1.48390000      -1.38660000      -0.83590000
H        2.19500000       0.24570000      -0.39410000
H        1.56360000       1.08400000       2.72510000
H       -0.09950000      -0.66650000       3.97170000
H       -0.19360000      -2.51490000       1.97130000
