19
Properties=species:S:1:pos:R:3 gdb_93360=T pbc="F F F"
C        0.12950000       1.58540000       0.02080000
C        0.00950000       0.05740000       0.01150000
C        0.62020000      -0.53050000      -1.27260000
N        0.65410000      -1.98600000      -1.23380000
C        0.98730000      -2.74080000      -0.14550000
O        1.08880000      -3.95420000      -0.18470000
C        1.16070000      -1.96700000       1.13260000
N        2.10860000      -0.82310000       1.10100000
C        0.67040000      -0.56590000       1.22700000
H        1.18150000       1.88900000       0.02730000
H       -0.34730000       2.02800000      -0.86000000
H       -0.34990000       2.01160000       0.90770000
H       -1.05250000      -0.22190000       0.04120000
H        0.01600000      -0.22760000      -2.13310000
H        1.62710000      -0.11700000      -1.40900000
H        0.60570000      -2.50060000      -2.10020000
H        1.15130000      -2.60230000       2.01170000
H        2.57010000      -0.75020000       2.00350000
H        0.29040000      -0.23810000       2.19290000
