19
Properties=species:S:1:pos:R:3 gdb_50718=T pbc="F F F"
N       -0.17840000       1.26750000      -0.33090000
C       -0.07240000       0.03260000      -0.06790000
C       -1.32560000      -0.78020000       0.20090000
C       -1.15500000      -1.92800000       1.19950000
C        0.04540000      -2.78130000       0.78910000
C        1.29820000      -1.91320000       0.75990000
N        1.14810000      -0.72170000      -0.09590000
C        2.27690000      -0.26880000      -0.74440000
O        2.40210000       0.77410000      -1.34740000
H        0.72310000       1.67210000      -0.58180000
H       -2.10060000      -0.07480000       0.50450000
H       -1.64000000      -1.20140000      -0.76490000
H       -0.99330000      -1.53010000       2.20980000
H       -2.06910000      -2.52850000       1.23780000
H        0.20800000      -3.60790000       1.48840000
H       -0.12590000      -3.21930000      -0.20200000
H        1.53590000      -1.59270000       1.78440000
H        2.15920000      -2.47880000       0.39240000
H        3.10180000      -1.00370000      -0.66790000
