23
Properties=species:S:1:pos:R:3 gdb_57563=T pbc="F F F"
C        0.02070000       1.56250000      -0.02700000
C        0.01000000       0.02370000       0.00830000
C        0.69540000      -0.47810000       1.29190000
C       -1.43910000      -0.49020000      -0.04560000
C        0.74870000      -0.52620000      -1.22050000
O        2.09260000      -0.07880000      -1.21690000
C        2.84270000      -0.53600000      -2.30860000
C        4.25400000       0.01110000      -2.18140000
O        5.12960000      -0.21100000      -2.97420000
H        1.04400000       1.94590000      -0.02920000
H       -0.48370000       1.94020000      -0.92370000
H       -0.49840000       1.97280000       0.84550000
H        0.18400000      -0.09170000       2.17960000
H        0.67810000      -1.57250000       1.34640000
H        1.73870000      -0.15530000       1.32910000
H       -1.95170000      -0.15110000      -0.95270000
H       -1.47760000      -1.58510000      -0.02540000
H       -2.00820000      -0.12230000       0.81430000
H        0.72300000      -1.62930000      -1.21470000
H        0.24680000      -0.19160000      -2.14440000
H        2.89320000      -1.63800000      -2.34670000
H        2.42030000      -0.20340000      -3.27260000
H        4.40570000       0.64290000      -1.27840000
