16
Properties=species:S:1:pos:R:3 gdb_5382=T pbc="F F F"
C       -0.23180000       1.53010000       0.09430000
C        0.09350000       0.03310000      -0.03540000
C        0.77000000      -0.51410000       1.19570000
C        0.14090000      -1.42850000       2.04830000
N        0.71860000      -1.90960000       3.14880000
C        1.95140000      -1.46900000       3.40370000
C        2.59010000      -0.56040000       2.56340000
N        2.00930000      -0.08140000       1.46450000
H        0.67930000       2.09780000       0.30070000
H       -0.67660000       1.91180000      -0.82930000
H       -0.93730000       1.71140000       0.91160000
H       -0.82070000      -0.53670000      -0.23320000
H        0.76100000      -0.11720000      -0.89140000
H       -0.86410000      -1.78220000       1.82850000
H        2.44230000      -1.84910000       4.29580000
H        3.59720000      -0.21260000       2.78160000
