17
Properties=species:S:1:pos:R:3 gdb_102899=T pbc="F F F"
N       -0.00580000       1.48400000      -0.05010000
C       -0.05640000       0.02470000       0.01200000
C        0.83650000      -0.45770000       1.17850000
N        0.34440000       0.12940000       2.41700000
C        1.26140000      -0.01330000       3.54190000
C        0.74330000       0.67980000       4.72340000
N        0.35010000       1.24510000       5.65030000
C        0.82640000      -1.92720000       1.25880000
N        0.83680000      -3.08110000       1.31180000
H        0.79420000       1.79890000      -0.58900000
H       -0.83320000       1.85260000      -0.50370000
H       -1.08290000      -0.28170000       0.22990000
H        0.25920000      -0.48550000      -0.90810000
H        1.88110000      -0.16330000       0.95380000
H        0.16220000       1.10990000       2.21460000
H        1.36980000      -1.07760000       3.78440000
H        2.27890000       0.37010000       3.34130000
