21
Properties=species:S:1:pos:R:3 gdb_96558=T pbc="F F F"
C        0.07290000       1.54960000      -0.03790000
C        0.01120000       0.02880000       0.03380000
O        0.71230000      -0.47380000      -1.10790000
C        0.26720000      -1.69960000      -1.65990000
C       -0.09010000      -2.78510000      -0.63250000
O        0.81960000      -2.84710000       0.44510000
C        0.46530000      -2.01450000       1.53880000
C        0.71410000      -0.52100000       1.29860000
O        2.10060000      -0.24490000       1.22300000
H        1.11180000       1.88100000       0.02750000
H       -0.35360000       1.90240000      -0.98020000
H       -0.48650000       1.99650000       0.78980000
H       -1.03900000      -0.29620000       0.01270000
H       -0.60630000      -1.54180000      -2.31460000
H        1.09620000      -2.04130000      -2.28780000
H       -1.11300000      -2.63990000      -0.25350000
H       -0.07090000      -3.75650000      -1.14130000
H       -0.59070000      -2.17920000       1.81350000
H        1.09350000      -2.33510000       2.37470000
H        0.33680000       0.01740000       2.17820000
H        2.37140000      -0.55780000       0.34940000
