22
Properties=species:S:1:pos:R:3 gdb_120819=T pbc="F F F"
C       -0.40280000       1.48470000      -0.03610000
C       -0.20180000      -0.02730000      -0.16120000
C        1.01970000      -0.40320000      -1.01120000
C        1.19290000      -1.90050000      -1.12650000
N        0.35540000      -2.60360000      -2.11380000
C        1.82150000      -2.61040000      -2.27630000
C        2.37640000      -1.92890000      -3.51340000
C        2.15420000      -2.78170000      -4.74600000
O        3.01730000      -3.11820000      -5.51580000
H        0.46490000       1.96400000       0.43100000
H       -0.54560000       1.94740000      -1.01900000
H       -1.28090000       1.72090000       0.57290000
H       -0.09680000      -0.46780000       0.83940000
H       -1.09120000      -0.48720000      -0.60830000
H        0.90980000       0.03610000      -2.00840000
H        1.92750000       0.03070000      -0.57020000
H        1.32450000      -2.39780000      -0.16460000
H        0.02790000      -3.49380000      -1.75060000
H        2.33800000      -3.53620000      -2.02470000
H        1.85090000      -0.98060000      -3.67490000
H        3.44640000      -1.72440000      -3.41220000
H        1.09530000      -3.09160000      -4.89200000
