14
Properties=species:S:1:pos:R:3 gdb_131180=T pbc="F F F"
O       -0.46480000       0.99440000      -0.87780000
C       -0.15110000      -0.23000000      -0.47220000
C        0.16300000      -1.43330000      -1.10380000
O        0.26910000      -1.81360000      -2.43740000
C        0.06810000      -1.00460000      -3.46350000
N       -0.24790000       0.22660000      -3.38730000
C        0.39480000      -2.35570000      -0.06320000
N        0.24430000      -1.80140000       1.12950000
N       -0.08670000      -0.51270000       0.84990000
H       -0.44460000       0.94440000      -1.87750000
H        0.21630000      -1.55930000      -4.39150000
H       -0.34930000       0.64480000      -4.30640000
H        0.66390000      -3.39690000      -0.16040000
H       -0.25870000       0.14000000       1.59540000
