12
Properties=species:S:1:pos:R:3 gdb_16258=T pbc="F F F"
N       -0.01140000       1.22520000       0.00160000
C       -0.02800000      -0.01980000       0.05520000
O        1.00380000      -0.95310000       0.19050000
C        0.07860000      -2.04090000      -0.01410000
C       -0.90770000      -2.07770000       1.08470000
C       -1.09950000      -1.06700000      -0.06950000
C       -2.26230000      -1.02870000      -0.88650000
N       -3.21080000      -1.01320000      -1.54820000
H        0.93290000       1.60160000       0.09220000
H        0.36630000      -2.83190000      -0.69180000
H       -1.62440000      -2.89210000       1.06320000
H       -0.63550000      -1.70670000       2.06700000
