16
Properties=species:S:1:pos:R:3 gdb_66264=T pbc="F F F"
C       -0.16950000       1.58530000       0.00640000
C        0.01240000       0.06320000      -0.04000000
C        0.87090000      -0.48800000      -1.20270000
O        1.41130000      -1.71550000      -0.73110000
C        1.78050000      -1.53720000       0.62040000
C        0.86310000      -0.44790000       1.17360000
O        0.82590000      -0.01350000       2.28680000
C       -1.27810000      -0.62690000       0.00490000
N       -2.29980000      -1.16690000       0.04460000
H        0.80320000       2.07930000      -0.06890000
H       -0.80410000       1.92980000      -0.81350000
H       -0.62800000       1.87350000       0.95460000
H        0.30370000      -0.69800000      -2.10990000
H        1.66780000       0.23700000      -1.43310000
H        1.66170000      -2.47890000       1.16330000
H        2.82530000      -1.20260000       0.72870000
