17
Properties=species:S:1:pos:R:3 gdb_63339=T pbc="F F F"
C       -0.00460000       1.54030000      -0.01680000
C       -0.02020000       0.01160000       0.00370000
C       -1.43730000      -0.56100000      -0.03740000
O        0.71830000      -0.48070000      -1.14070000
C        1.80830000      -1.22740000      -0.81110000
O        2.52340000      -1.70770000      -1.63930000
C        1.92690000      -1.32320000       0.70110000
C        0.74910000      -0.52500000       1.22400000
O        0.43820000      -0.32390000       2.36720000
H        1.02050000       1.92130000      -0.03220000
H       -0.52230000       1.90830000      -0.90640000
H       -0.50550000       1.92380000       0.87550000
H       -1.96070000      -0.20200000      -0.92740000
H       -1.41720000      -1.65410000      -0.06670000
H       -1.98560000      -0.24640000       0.85390000
H        1.89070000      -2.36530000       1.03220000
H        2.88080000      -0.91340000       1.04630000
