19
Properties=species:S:1:pos:R:3 gdb_102393=T pbc="F F F"
C        0.09490000       1.36860000      -0.04910000
O       -0.08030000      -0.02150000       0.17080000
C       -1.40020000      -0.55880000      -0.01600000
C       -1.14570000      -2.09760000      -0.14000000
O       -2.23160000      -2.88370000       0.28600000
C       -2.25030000      -0.26650000       1.23820000
O       -1.68980000      -0.90240000       2.37570000
C       -2.07250000      -0.03290000      -1.20420000
C       -2.65530000       0.39100000      -2.16660000
H        1.14830000       1.57550000       0.15270000
H       -0.13800000       1.64600000      -1.08320000
H       -0.51940000       1.98230000       0.62370000
H       -0.95240000      -2.34490000      -1.18600000
H       -0.23350000      -2.30390000       0.43320000
H       -2.25520000      -2.80410000       1.24790000
H       -2.34160000       0.81860000       1.38250000
H       -3.25180000      -0.67660000       1.09920000
H       -0.75790000      -0.65020000       2.39330000
H       -3.16930000       0.75380000      -3.02280000
