14
Properties=species:S:1:pos:R:3 gdb_47964=T pbc="F F F"
O       -0.15910000       0.06760000       0.36110000
C        0.01400000       1.15930000      -0.12830000
C        1.25510000       1.88850000      -0.07510000
C        2.28120000       2.52630000      -0.04830000
C        3.49430000       3.28570000      -0.01950000
C        3.82060000       4.18550000      -1.22970000
C        3.39090000       4.82400000       0.03930000
C        4.61680000       2.68430000       0.66320000
N        5.52920000       2.22430000       1.20360000
H       -0.79580000       1.69080000      -0.66840000
H        4.86580000       4.23220000      -1.51000000
H        3.11880000       4.12860000      -2.05220000
H        2.38530000       5.21850000       0.11390000
H        4.13370000       5.32000000       0.65200000
