21
Properties=species:S:1:pos:R:3 gdb_51614=T pbc="F F F"
O       -0.22670000      -0.03790000      -0.24670000
C       -0.00570000       1.13880000      -0.11350000
C        1.35270000       1.78720000      -0.25130000
C        1.36610000       2.87180000      -1.33200000
C        0.56180000       4.19000000      -1.09660000
C        1.76800000       4.96200000      -1.64620000
C        1.74530000       5.87350000      -2.83920000
C        2.12090000       6.40620000      -1.47280000
C        2.66140000       3.72410000      -1.49140000
H       -0.83360000       1.84920000       0.11940000
H        1.60690000       2.24640000       0.71560000
H        2.08950000       1.00580000      -0.46300000
H        1.08880000       2.43110000      -2.29480000
H       -0.38970000       4.29840000      -1.62430000
H        0.39340000       4.38380000      -0.03060000
H        2.53210000       5.76890000      -3.58000000
H        0.78140000       6.15730000      -3.25010000
H        1.41070000       7.04970000      -0.96270000
H        3.16050000       6.66150000      -1.29220000
H        3.25100000       3.74520000      -0.56760000
H        3.32400000       3.46970000      -2.32320000
