18
Properties=species:S:1:pos:R:3 gdb_69892=T pbc="F F F"
C       -0.04470000       1.57090000       0.21160000
C       -0.02770000       0.07710000       0.07300000
C       -0.84390000      -0.87650000       0.89940000
C        0.66340000      -0.96850000       0.94650000
C        1.24270000      -1.63940000      -0.31840000
N        0.18130000      -2.07210000      -1.20230000
C        0.53580000      -0.62660000      -1.20200000
C        1.14380000      -0.04950000      -2.39640000
O        1.57560000      -0.72150000      -3.31430000
H        0.91920000       2.01690000      -0.06150000
H       -0.81270000       2.02340000      -0.42780000
H       -0.26090000       1.85790000       1.24510000
H       -1.28320000      -0.42860000       1.78580000
H       -1.42780000      -1.66290000       0.43900000
H        1.24050000      -0.81090000       1.84800000
H        2.26380000      -1.97960000      -0.43920000
H        0.61180000      -2.44020000      -2.05420000
H        1.20820000       1.05790000      -2.41640000
