18
Properties=species:S:1:pos:R:3 gdb_55763=T pbc="F F F"
C        0.20880000       1.51560000      -0.08440000
C        0.45860000       0.01530000      -0.01540000
O        1.17150000      -0.50230000       0.81810000
N       -0.17520000      -0.70250000      -1.00940000
C       -0.10420000      -2.10710000      -1.12760000
C        1.20060000      -2.86090000      -1.22760000
C        0.18560000      -3.00880000      -2.31610000
O       -0.83030000      -3.94060000      -1.94180000
C       -1.22930000      -3.09980000      -0.82530000
H        0.71860000       1.94650000      -0.95290000
H       -0.85770000       1.74570000      -0.17590000
H        0.60300000       1.97620000       0.82060000
H       -0.81220000      -0.20830000      -1.61540000
H        2.05020000      -2.22870000      -1.46130000
H        1.40740000      -3.69030000      -0.55810000
H        0.34340000      -2.81680000      -3.37120000
H       -1.20000000      -3.62760000       0.13460000
H       -2.23120000      -2.68610000      -0.99480000
