21
Properties=species:S:1:pos:R:3 gdb_92901=T pbc="F F F"
C        0.01280000       1.57500000       0.03240000
C        0.06570000       0.04520000       0.01690000
C        0.78040000      -0.51040000      -1.22310000
O        2.15240000      -0.09570000      -1.13770000
C        0.65430000      -2.03900000      -1.28020000
C        0.92290000      -2.69130000       0.05080000
C        0.93290000      -2.02070000       1.20090000
C        0.70600000      -0.52990000       1.30320000
O        1.91940000       0.12970000       1.66060000
H        1.01750000       1.99820000       0.07010000
H       -0.49280000       1.95480000      -0.86190000
H       -0.53520000       1.93530000       0.90890000
H       -0.96130000      -0.34290000      -0.02600000
H        0.33170000      -0.07710000      -2.13000000
H        2.64540000      -0.52310000      -1.84450000
H       -0.35360000      -2.30040000      -1.63520000
H        1.33790000      -2.43730000      -2.04420000
H        1.11490000      -3.76190000       0.04250000
H        1.16300000      -2.53100000       2.13260000
H        0.02530000      -0.32760000       2.13980000
H        2.49410000       0.03440000       0.88850000
