16
Properties=species:S:1:pos:R:3 gdb_71151=T pbc="F F F"
O       -0.08850000       1.37710000       0.10730000
C        0.02940000      -0.01020000       0.01260000
C        0.29750000      -0.66550000      -1.37000000
N       -0.88010000      -1.58760000      -1.19760000
C       -0.85290000      -2.18420000       0.18900000
C       -1.31760000      -0.78910000      -0.02150000
C        0.42260000      -2.17100000       0.98440000
O        0.94500000      -3.12240000       1.50610000
C        0.88540000      -0.70910000       1.07140000
H        0.79310000       1.75930000       0.17370000
H        0.06420000       0.01330000      -2.19290000
H        1.26100000      -1.15830000      -1.54370000
H       -1.52720000      -3.02610000       0.28690000
H       -2.32190000      -0.40760000       0.11730000
H        1.96530000      -0.62100000       0.91630000
H        0.64120000      -0.32530000       2.06980000
