18
Properties=species:S:1:pos:R:3 gdb_22590=T pbc="F F F"
C       -0.05570000       1.48600000      -0.00900000
C        0.01810000      -0.02460000      -0.00370000
O        0.69960000      -0.43960000      -1.16590000
C        0.76540000      -1.85520000      -1.25960000
C        1.32380000      -2.45310000       0.00740000
C        0.80250000      -1.84110000       1.28580000
O        0.70120000      -0.42860000       1.16080000
N        2.15800000      -3.40920000      -0.10150000
O        2.54640000      -3.92150000       1.14560000
H        0.95630000       1.89790000      -0.01100000
H       -0.58310000       1.82980000      -0.90140000
H       -0.58240000       1.83730000       0.88080000
H       -0.99290000      -0.48100000      -0.00260000
H       -0.24690000      -2.26160000      -1.43540000
H        1.39230000      -2.10900000      -2.11570000
H       -0.18380000      -2.27750000       1.52310000
H        1.47490000      -2.04660000       2.11800000
H        3.21170000      -4.57280000       0.89950000
