21
Properties=species:S:1:pos:R:3 gdb_51729=T pbc="F F F"
O       -0.72990000       0.97730000       0.74840000
C       -0.01110000       1.06650000      -0.21350000
C        1.33960000       1.74440000      -0.23110000
C        1.37220000       2.89890000      -1.23550000
C        0.59560000       4.20490000      -0.88580000
C        1.81190000       5.03990000      -1.37980000
C        2.64980000       3.75420000      -1.35550000
C        3.92220000       3.56180000      -0.58050000
C        3.91880000       3.44860000      -2.08900000
H       -0.32170000       0.64440000      -1.19940000
H        1.57550000       2.08820000       0.78000000
H        2.08420000       0.98860000      -0.52370000
H        1.07400000       2.52860000      -2.22490000
H       -0.35860000       4.36490000      -1.39200000
H        0.43770000       4.30200000       0.19180000
H        1.66940000       5.43110000      -2.39230000
H        2.14270000       5.85820000      -0.73470000
H        4.38070000       4.43740000      -0.13150000
H        4.04900000       2.65100000      -0.00360000
H        4.03700000       2.46010000      -2.52360000
H        4.37930000       4.24410000      -2.66670000
