16
Properties=species:S:1:pos:R:3 gdb_32461=T pbc="F F F"
N       -0.08720000       1.39170000      -0.04660000
C       -0.08800000      -0.00260000      -0.01900000
C       -1.14490000      -0.85740000      -0.08310000
O       -2.46090000      -0.54030000      -0.19030000
C       -0.62910000      -2.19250000      -0.01700000
C       -1.41260000      -3.46240000      -0.05190000
O       -0.50630000      -4.55080000       0.03840000
C        0.71950000      -2.04380000       0.08340000
O        1.07820000      -0.73350000       0.08500000
H        0.41870000       1.77520000      -0.83950000
H        0.29310000       1.80770000       0.79850000
H       -2.50960000       0.42500000      -0.21320000
H       -2.13840000      -3.47390000       0.77830000
H       -2.00430000      -3.50830000      -0.98140000
H       -1.01650000      -5.36490000       0.01510000
H        1.51740000      -2.76190000       0.15880000
