17
Properties=species:S:1:pos:R:3 gdb_90694=T pbc="F F F"
N        0.26770000       1.18880000       0.16750000
H        0.41340000       0.17510000       0.20060000
H        1.18230000       1.64340000       0.21550000
H       -0.16700000       1.42750000      -0.72650000
C       -0.63080000       1.62020000       1.35090000
C       -1.86830000       0.71090000       1.41440000
N       -1.32150000      -0.01940000       2.61970000
C       -0.12830000       0.92010000       2.60760000
C       -1.12510000       0.99650000       3.70160000
C       -2.01400000       2.26170000       3.94500000
O       -2.38220000       2.40100000       5.10990000
O       -2.21200000       2.96240000       2.91550000
H       -0.74200000       2.70070000       1.31680000
H       -2.79920000       1.24860000       1.57450000
H       -1.95090000       0.00770000       0.57440000
H        0.89830000       0.58170000       2.74640000
H       -0.82120000       0.48540000       4.61090000
