20
Properties=species:S:1:pos:R:3 gdb_99596=T pbc="F F F"
C       -0.22520000       1.36820000      -0.83270000
C       -0.03960000       0.04410000      -0.12250000
C        1.09670000      -0.82570000      -0.51590000
N        1.13470000      -0.10330000       0.77260000
C       -1.30500000      -0.61470000       0.46150000
C       -1.69630000       0.01940000       1.82570000
O       -0.79640000      -0.34550000       2.84240000
C       -2.41830000      -0.59270000      -0.48090000
C       -3.35690000      -0.56150000      -1.23190000
H        0.73560000       1.75010000      -1.19260000
H       -0.89450000       1.25910000      -1.68980000
H       -0.66000000       2.12040000      -0.16560000
H        1.01290000      -1.90540000      -0.43220000
H        1.75620000      -0.48280000      -1.30810000
H        1.73350000       0.71470000       0.69720000
H       -1.06200000      -1.66030000       0.69000000
H       -1.77260000       1.11350000       1.70720000
H       -2.68810000      -0.34220000       2.11440000
H        0.09280000      -0.29990000       2.45380000
H       -4.18520000      -0.54690000      -1.89640000
