21
Properties=species:S:1:pos:R:3 gdb_101899=T pbc="F F F"
C        0.18180000       1.39750000       0.30950000
C        0.11570000      -0.11040000       0.05710000
C        0.64800000      -0.51580000      -1.32180000
O        2.00070000      -0.09540000      -1.51250000
C        0.49760000      -2.01960000      -1.58490000
C        0.97540000      -2.40770000      -2.97940000
O        0.78850000      -3.81370000      -3.19420000
C        1.87960000      -4.58380000      -3.34790000
O        1.82280000      -5.76600000      -3.50690000
H        1.20300000       1.76740000       0.18510000
H       -0.45480000       1.94160000      -0.39660000
H       -0.15410000       1.64380000       1.32080000
H        0.69280000      -0.64720000       0.82500000
H       -0.91760000      -0.46550000       0.15370000
H        0.08870000       0.03530000      -2.09040000
H        2.52390000      -0.46140000      -0.78980000
H        1.07100000      -2.58360000      -0.83620000
H       -0.55090000      -2.31510000      -1.46680000
H        0.39340000      -1.89060000      -3.74930000
H        2.02800000      -2.13570000      -3.11300000
H        2.82200000      -4.00110000      -3.31430000
