22
Properties=species:S:1:pos:R:3 gdb_76170=T pbc="F F F"
C       -1.70920000       0.97180000      -0.55560000
C       -0.79970000      -0.22250000      -0.36450000
C        0.34740000      -0.59010000      -1.27450000
C        0.56250000      -2.06550000      -1.56740000
C        0.72030000       0.29380000      -2.45210000
C        0.64050000      -0.08200000       0.15370000
C        1.27160000       1.28010000       0.42050000
C        1.05600000      -1.06580000       1.12470000
N        1.39940000      -1.83860000       1.91580000
H       -1.19920000       1.83930000      -0.97860000
H       -2.53120000       0.71390000      -1.23210000
H       -2.15080000       1.27880000       0.39830000
H       -1.32000000      -1.08140000       0.05250000
H       -0.06470000      -2.37590000      -2.41070000
H        1.60580000      -2.26500000      -1.83660000
H        0.31570000      -2.69570000      -0.71030000
H        0.52290000       1.35350000      -2.28780000
H        1.78330000       0.18500000      -2.69400000
H        0.15070000      -0.01140000      -3.33710000
H        0.92120000       2.04070000      -0.27670000
H        1.03190000       1.61830000       1.43300000
H        2.36100000       1.22270000       0.33720000
