15
Properties=species:S:1:pos:R:3 gdb_25925=T pbc="F F F"
C       -0.02360000       1.46700000       0.06210000
C        0.01830000      -0.03930000       0.04870000
O        0.04950000      -0.70880000       1.07180000
N        0.02130000      -0.65490000      -1.19260000
C       -0.00950000      -0.09310000      -2.48580000
C        0.01050000      -1.14930000      -3.33180000
N        0.05250000      -2.36500000      -2.65350000
C        0.05810000      -2.05130000      -1.39760000
O        0.09340000      -2.89190000      -0.37900000
H        0.84290000       1.88130000      -0.46230000
H       -0.92400000       1.83200000      -0.44140000
H       -0.02070000       1.80290000       1.09810000
H       -0.04120000       0.96970000      -2.64400000
H       -0.00260000      -1.12630000      -4.41070000
H        0.08730000      -2.34630000       0.43960000
