23
Properties=species:S:1:pos:R:3 gdb_78115=T pbc="F F F"
C       -0.06070000       1.46190000       0.04050000
C        0.07000000      -0.04640000      -0.00310000
C        0.73910000      -0.64610000      -1.22620000
C        1.45120000      -0.63520000       0.11640000
O        2.56290000       0.11750000       0.46570000
C        1.39030000      -2.16450000       0.20070000
C        0.70170000      -2.19020000      -1.21890000
C       -0.67130000      -2.85550000      -1.30150000
C        1.64290000      -2.76070000      -2.28190000
H        0.81580000       1.94650000      -0.39770000
H       -0.94700000       1.79580000      -0.50930000
H       -0.15730000       1.82280000       1.07130000
H       -0.76330000      -0.58090000       0.45320000
H        0.92500000      -0.03770000      -2.10550000
H        2.48830000       0.35430000       1.39710000
H        2.38030000      -2.62670000       0.18740000
H        0.81320000      -2.57840000       1.03530000
H       -1.36780000      -2.45950000      -0.55640000
H       -1.12020000      -2.70320000      -2.28980000
H       -0.59080000      -3.93630000      -1.13730000
H        1.78450000      -3.83860000      -2.14230000
H        1.23770000      -2.60320000      -3.28850000
H        2.62580000      -2.28050000      -2.23820000
