22
Properties=species:S:1:pos:R:3 gdb_117686=T pbc="F F F"
C        0.05820000       1.60560000       0.07150000
C        0.03460000       0.06660000       0.10130000
C        0.82740000      -0.45280000       1.31460000
C       -1.41450000      -0.47430000       0.10240000
C       -2.28830000      -0.08340000       1.29110000
O       -3.55710000      -0.68600000       1.07650000
C        0.68650000      -0.47920000      -1.20570000
C        2.07740000      -0.07110000      -1.39110000
N        3.17710000       0.25960000      -1.52450000
H        1.08110000       1.97860000      -0.03690000
H       -0.53310000       1.99490000      -0.76490000
H       -0.34890000       2.02750000       0.99450000
H        0.42850000      -0.05290000       2.25090000
H        0.79000000      -1.54630000       1.37380000
H        1.87830000      -0.15460000       1.25130000
H       -1.92850000      -0.13780000      -0.80690000
H       -1.39320000      -1.57050000       0.05780000
H       -1.83980000      -0.43590000       2.23190000
H       -2.37950000       1.01100000       1.35930000
H       -4.12810000      -0.45520000       1.81490000
H        0.64820000      -1.57470000      -1.20890000
H        0.11180000      -0.14010000      -2.07540000
