17
Properties=species:S:1:pos:R:3 gdb_19300=T pbc="F F F"
O        0.05410000       1.38040000       0.17530000
C        0.02940000       0.02810000      -0.25060000
C       -1.36970000      -0.56380000      -0.10670000
C       -1.55440000      -2.08560000      -0.07830000
N       -0.83970000      -2.57490000       1.13190000
C       -2.21950000      -2.03970000       1.25270000
C       -2.00880000      -0.52320000       1.34580000
O       -1.18330000      -0.08070000       2.40040000
H       -0.19400000       1.35970000       1.10920000
H        0.34090000       0.02280000      -1.30110000
H        0.75080000      -0.58690000       0.30600000
H       -2.05540000      -0.09340000      -0.81710000
H       -1.73970000      -2.75500000      -0.90910000
H       -0.89940000      -3.59120000       1.14330000
H       -3.01600000      -2.64410000       1.66860000
H       -2.93000000       0.05950000       1.38620000
H       -0.50800000      -0.76890000       2.49420000
