16
Properties=species:S:1:pos:R:3 gdb_132042=T pbc="F F F"
C       -0.02250000       1.52730000      -0.00000000
C       -0.00160000       0.02320000       0.00640000
C       -1.14060000      -0.70630000      -0.09910000
F       -2.32510000      -0.10730000      -0.21280000
C       -1.19250000      -2.16330000      -0.09960000
N       -2.30040000      -2.80300000      -0.20250000
N        0.08300000      -2.73500000       0.02270000
C        1.25470000      -2.03130000       0.13140000
C        1.24900000      -0.68060000       0.12680000
H        0.57800000       1.91800000      -0.82940000
H       -1.03810000       1.91080000      -0.09740000
H        0.41180000       1.92330000       0.92500000
H       -2.15240000      -3.81290000      -0.18550000
H        0.11800000      -3.74270000       0.02900000
H        2.15360000      -2.62810000       0.21810000
H        2.17590000      -0.12930000       0.21280000
