20
Properties=species:S:1:pos:R:3 gdb_78424=T pbc="F F F"
C       -0.08770000       1.44210000      -0.01340000
N        0.03740000      -0.00920000       0.03390000
C        1.40910000      -0.51290000      -0.18360000
C        0.82020000      -0.51930000       1.17830000
C        0.65010000      -2.01170000       1.42460000
C        0.18740000      -2.67570000       0.08630000
C        1.01270000      -3.93710000       0.43720000
C        1.91280000      -2.74720000       0.83200000
C        1.47720000      -2.00270000      -0.48810000
H        0.79590000       1.98080000       0.37130000
H       -0.25230000       1.75620000      -1.04930000
H       -0.95630000       1.74850000       0.57860000
H        2.18490000       0.18100000      -0.49100000
H        1.12530000       0.16950000       1.95960000
H        0.22330000      -2.36040000       2.36630000
H       -0.81040000      -2.62170000      -0.34500000
H        0.63410000      -4.56090000       1.25210000
H        1.34930000      -4.55310000      -0.40170000
H        2.91530000      -2.77700000       1.26530000
H        1.87200000      -2.34250000      -1.44670000
