19
Properties=species:S:1:pos:R:3 gdb_109159=T pbc="F F F"
C       -0.10990000       1.44810000       0.06310000
N       -0.04750000       0.01090000      -0.09380000
C        0.62210000      -0.58260000      -1.10530000
N        1.16060000      -0.00700000      -2.12230000
C        1.77520000      -1.03050000      -2.98230000
C        1.45560000      -2.42890000      -2.40020000
C        2.63810000      -3.38540000      -2.22710000
C        0.78260000      -2.07750000      -1.08060000
O        0.45200000      -2.80610000      -0.17530000
H        0.85990000       1.88040000       0.34450000
H       -0.41600000       1.90670000      -0.88100000
H       -0.84440000       1.69510000       0.83240000
H       -0.26710000      -0.59260000       0.68330000
H        1.40760000      -0.91100000      -4.00780000
H        2.85900000      -0.85880000      -3.02130000
H        0.68740000      -2.92000000      -3.01290000
H        3.44230000      -2.91240000      -1.65390000
H        2.32370000      -4.28440000      -1.68950000
H        3.04620000      -3.68420000      -3.19690000
