17
Properties=species:S:1:pos:R:3 gdb_10074=T pbc="F F F"
C       -0.00180000       1.33840000       0.05150000
O        0.07510000      -0.07440000      -0.00720000
C        0.70510000      -0.58940000      -1.17360000
C        2.19810000      -0.78790000      -0.88450000
O        2.38540000      -1.62230000       0.23990000
C        0.01850000      -1.92870000      -1.49300000
C       -1.40540000      -1.76680000      -1.76990000
N       -2.52750000      -1.62870000      -2.00760000
H        0.99000000       1.81200000       0.03640000
H       -0.59620000       1.73730000      -0.78170000
H       -0.49630000       1.58990000       0.99200000
H        0.57310000       0.10120000      -2.01870000
H        2.69650000      -1.26780000      -1.73340000
H        2.66840000       0.19770000      -0.74020000
H        1.82510000      -1.25370000       0.93510000
H        0.50010000      -2.39470000      -2.35930000
H        0.15800000      -2.60300000      -0.64300000
