16
Properties=species:S:1:pos:R:3 gdb_11249=T pbc="F F F"
O        0.02950000       1.45280000       0.04210000
C        0.08390000       0.03400000       0.03180000
C       -1.30880000      -0.65670000       0.07010000
C       -1.23810000      -1.85940000      -0.90950000
C       -2.46840000      -1.95790000      -1.79370000
O       -3.13950000      -2.94390000      -1.94490000
C        0.01430000      -1.55930000      -1.71630000
C        0.72120000      -0.55450000      -1.20470000
H       -0.39290000       1.73300000      -0.77800000
H        0.67170000      -0.21340000       0.92440000
H       -1.61060000      -0.95730000       1.07490000
H       -2.05050000       0.07180000      -0.28170000
H       -1.14370000      -2.81750000      -0.38570000
H       -2.71160000      -1.00460000      -2.32300000
H        0.28900000      -2.15040000      -2.58320000
H        1.66960000      -0.18870000      -1.58270000
