18
Properties=species:S:1:pos:R:3 gdb_102394=T pbc="F F F"
C       -0.22870000       1.32040000       0.06920000
O        0.25590000      -0.01860000       0.05900000
C        0.75530000      -0.52460000      -1.17920000
C       -0.02410000      -0.05820000      -2.43180000
O       -1.40750000      -0.29610000      -2.34690000
C        2.25590000      -0.16870000      -1.28580000
O        2.95220000      -0.56870000      -0.13510000
C        0.58530000      -1.99090000      -1.08150000
N        0.40280000      -3.13160000      -1.08670000
H        0.51930000       2.04130000      -0.28680000
H       -1.14420000       1.41470000      -0.52270000
H       -0.45150000       1.54210000       1.11470000
H        0.09850000       1.02170000      -2.54930000
H        0.43320000      -0.54050000      -3.30820000
H       -1.54910000      -1.24690000      -2.26370000
H        2.70850000      -0.67760000      -2.14210000
H        2.33210000       0.91760000      -1.46020000
H        2.40010000      -0.31570000       0.61650000
