19
Properties=species:S:1:pos:R:3 gdb_121081=T pbc="F F F"
O        0.02570000       1.42410000      -0.14270000
C        0.07000000       0.01420000      -0.00690000
C       -1.36730000      -0.49510000      -0.04040000
C       -1.48030000      -2.01670000       0.04890000
C       -0.99220000      -2.62170000       1.38080000
O       -1.70770000      -3.85510000       1.54490000
C       -2.83760000      -3.86800000       0.78090000
O       -3.60510000      -4.78440000       0.79180000
C       -2.90920000      -2.56960000      -0.01530000
H        0.92600000       1.76090000      -0.11560000
H        0.64580000      -0.45080000      -0.82450000
H        0.55590000      -0.27820000       0.93870000
H       -1.92530000      -0.03060000       0.78250000
H       -1.83050000      -0.14350000      -0.96940000
H       -0.89750000      -2.47050000      -0.76310000
H        0.07480000      -2.85300000       1.40000000
H       -1.22370000      -1.96240000       2.22810000
H       -3.62050000      -1.90240000       0.48850000
H       -3.28890000      -2.75750000      -1.02020000
