16
Properties=species:S:1:pos:R:3 gdb_92818=T pbc="F F F"
O        0.19140000       1.45550000      -0.07830000
C        0.04440000       0.05580000      -0.00750000
C        0.82390000      -0.53310000       1.23130000
N        0.09960000       0.06690000       2.36710000
C       -1.10630000      -0.28530000       2.28210000
O       -2.15790000       0.63880000       2.27080000
C       -2.58680000      -0.04320000       1.05050000
C       -1.43120000      -0.43930000       0.06790000
C       -1.77160000      -1.24930000       1.29900000
H       -0.02130000       1.80120000       0.79890000
H        0.47470000      -0.33210000      -0.93810000
H        0.80880000      -1.63030000       1.19690000
H        1.85970000      -0.18990000       1.23540000
H       -3.61460000       0.10800000       0.74900000
H       -1.83300000      -0.81340000      -0.87160000
H       -1.99610000      -2.30220000       1.39220000
