21
Properties=species:S:1:pos:R:3 gdb_73272=T pbc="F F F"
C       -0.06590000       1.51570000       0.03900000
C        0.02650000      -0.00710000       0.01740000
C       -1.29960000      -0.64640000      -0.38090000
C       -1.38760000      -2.10680000       0.05340000
O       -1.10200000      -2.22170000       1.43840000
C        0.27130000      -2.00280000       1.69020000
C        0.77440000      -0.61040000       1.24780000
C        1.97470000      -0.65690000       0.28240000
O        1.12040000      -0.42970000      -0.85600000
H        0.90290000       1.96580000       0.27520000
H       -0.38320000       1.88690000      -0.94100000
H       -0.79240000       1.85150000       0.78640000
H       -2.11800000      -0.09290000       0.09310000
H       -1.41990000      -0.55180000      -1.46690000
H       -2.39770000      -2.49940000      -0.09260000
H       -0.68940000      -2.72710000      -0.53120000
H        0.40690000      -2.13540000       2.76710000
H        0.86110000      -2.78430000       1.18200000
H        0.86400000       0.06630000       2.10000000
H        2.70440000       0.15290000       0.41690000
H        2.51180000      -1.60980000       0.20980000
