23
Properties=species:S:1:pos:R:3 gdb_78054=T pbc="F F F"
C       -0.09310000       1.51680000       0.06110000
C       -0.01020000      -0.00380000      -0.01560000
C        0.76290000      -0.53230000      -1.23880000
C        1.82650000      -1.15910000      -0.32100000
C        1.07780000      -0.65650000       0.92230000
O        1.80960000       0.22440000       1.74630000
C        0.96760000      -2.02650000      -1.21360000
C       -0.06590000      -3.00210000      -0.67750000
C        1.70730000      -2.56480000      -2.43030000
H        0.87440000       1.99270000      -0.13630000
H       -0.79410000       1.89660000      -0.68950000
H       -0.43320000       1.84660000       1.04660000
H       -1.01720000      -0.41990000       0.10530000
H        0.90320000       0.03300000      -2.15540000
H        2.90900000      -1.16100000      -0.40750000
H        0.70590000      -1.42820000       1.60330000
H        2.25390000       0.86550000       1.18150000
H       -0.61650000      -2.61800000       0.18350000
H       -0.79990000      -3.24640000      -1.45430000
H        0.41270000      -3.93970000      -0.37170000
H        2.23500000      -3.49460000      -2.18930000
H        1.00900000      -2.78140000      -3.24700000
H        2.44560000      -1.84710000      -2.80160000
