18
Properties=species:S:1:pos:R:3 gdb_29908=T pbc="F F F"
C        0.23860000       1.47010000       0.00000000
N        0.03740000       0.03680000       0.02450000
C       -0.26970000      -0.76170000      -1.03500000
N       -0.38650000      -2.02450000      -0.69160000
C       -0.14260000      -2.05300000       0.66310000
C        0.12180000      -0.78990000       1.12700000
N       -0.16480000      -3.22190000       1.45250000
C       -1.14920000      -4.24940000       1.07210000
C        0.29200000      -4.46070000       0.80010000
H        1.25010000       1.72930000       0.32780000
H        0.10090000       1.82940000      -1.02170000
H       -0.48220000       1.97780000       0.64860000
H       -0.39430000      -0.35860000      -2.03010000
H        0.35430000      -0.41950000       2.11080000
H       -1.63170000      -4.74860000       1.90770000
H       -1.78330000      -4.02990000       0.21850000
H        0.61380000      -4.38150000      -0.23390000
H        0.88200000      -5.11720000       1.43340000
