15
Properties=species:S:1:pos:R:3 gdb_56092=T pbc="F F F"
N        0.00120000       1.33260000      -0.00080000
C       -0.02820000      -0.03990000      -0.19090000
O        0.81480000      -0.64050000      -0.83010000
N       -1.08830000      -0.66670000       0.43500000
C       -1.14880000      -2.11700000       0.45560000
C       -2.48280000      -2.63730000       0.18290000
C       -3.58460000      -3.09080000      -0.01610000
C       -4.90930000      -3.59190000      -0.27480000
O       -5.24360000      -4.74710000      -0.14670000
H        0.64470000       1.79510000      -0.62500000
H       -0.87820000       1.81360000       0.11480000
H       -1.59700000      -0.16930000       1.14780000
H       -0.44170000      -2.45830000      -0.30900000
H       -0.79310000      -2.52800000       1.41190000
H       -5.62670000      -2.81550000      -0.61140000
