23
Properties=species:S:1:pos:R:3 gdb_119771=T pbc="F F F"
C       -0.16730000       1.58940000       0.12450000
C       -0.17520000       0.05900000       0.13210000
C        0.87870000      -0.53300000       1.08920000
C        0.90520000      -2.03080000       1.11160000
C        1.87330000      -2.85380000       0.71650000
C        1.48190000      -4.29020000       0.93310000
C        2.42910000      -5.08400000       1.83360000
O        0.18410000      -4.21610000       1.53900000
C       -0.24650000      -2.86430000       1.62300000
H        0.80830000       1.97890000      -0.18730000
H       -0.92000000       1.98770000      -0.56270000
H       -0.37950000       1.99160000       1.12140000
H       -1.17190000      -0.30050000       0.41530000
H        0.01120000      -0.32100000      -0.87970000
H        1.87010000      -0.15700000       0.81050000
H        0.67760000      -0.15660000       2.10310000
H        2.83050000      -2.56380000       0.29950000
H        1.38940000      -4.82290000      -0.02980000
H        2.56700000      -4.57110000       2.79000000
H        2.01800000      -6.07890000       2.02700000
H        3.40710000      -5.20330000       1.35490000
H       -0.50690000      -2.61740000       2.66530000
H       -1.16170000      -2.72230000       1.02460000
