21
Properties=species:S:1:pos:R:3 gdb_119787=T pbc="F F F"
O       -0.09880000       1.41300000      -0.11570000
C        0.01480000      -0.00140000      -0.13560000
C       -1.36840000      -0.58190000       0.17280000
C       -1.40180000      -2.07150000       0.10980000
C       -1.57470000      -2.99750000       1.06040000
C       -1.49920000      -4.32680000       0.29630000
C       -0.27090000      -4.04520000      -0.63640000
C       -1.23390000      -2.92760000      -1.16530000
C       -2.37870000      -3.97740000      -0.95420000
H        0.77100000       1.78750000      -0.28280000
H        0.35950000      -0.36070000      -1.11860000
H        0.73560000      -0.36030000       0.61550000
H       -1.67670000      -0.23670000       1.16560000
H       -2.07380000      -0.14970000      -0.54990000
H       -1.74270000      -2.87220000       2.12130000
H       -1.61260000      -5.25820000       0.85030000
H        0.65950000      -3.72670000      -0.15990000
H       -0.08490000      -4.84000000      -1.36630000
H       -1.07630000      -2.41790000      -2.11650000
H       -2.39110000      -4.76540000      -1.71450000
H       -3.38570000      -3.59540000      -0.77050000
