16
Properties=species:S:1:pos:R:3 gdb_31567=T pbc="F F F"
C        0.16520000       1.38340000      -0.00080000
O       -0.32900000       0.07880000      -0.31220000
C        0.38840000      -0.62840000      -1.19300000
C        0.64590000      -1.95970000      -1.25010000
C        1.37010000      -2.16630000      -2.48200000
N        1.79010000      -3.40040000      -3.00620000
C        1.49790000      -0.94300000      -3.05480000
O        2.17560000      -0.52700000      -4.14760000
O        0.89080000       0.02490000      -2.27230000
H        1.18400000       1.32910000       0.40050000
H        0.15850000       2.03040000      -0.88270000
H       -0.50850000       1.78640000       0.75660000
H        0.34800000      -2.70110000      -0.52710000
H        2.20410000      -3.99400000      -2.29720000
H        2.46230000      -3.26920000      -3.75310000
H        1.55530000      -0.29820000      -4.85190000
