21
Properties=species:S:1:pos:R:3 gdb_111839=T pbc="F F F"
O        0.10570000       1.40670000       0.24950000
C        0.06090000       0.06350000      -0.21950000
C       -1.32510000      -0.52430000      -0.10630000
C       -1.61130000      -2.01280000      -0.11340000
C       -0.49210000      -3.05740000      -0.15120000
C       -0.21330000      -3.68550000       1.22990000
C       -0.17030000      -2.65390000       2.33190000
C       -0.89350000      -1.53290000       2.29180000
C       -1.80690000      -1.22450000       1.16200000
H       -0.17170000       1.39210000       1.17140000
H        0.36710000       0.11200000      -1.27050000
H        0.79400000      -0.56010000       0.30910000
H       -2.07450000       0.09350000      -0.59490000
H       -2.51750000      -2.30040000      -0.63700000
H       -0.75620000      -3.84370000      -0.86550000
H        0.43670000      -2.61460000      -0.52400000
H       -0.98960000      -4.42820000       1.46650000
H        0.72890000      -4.24380000       1.19820000
H        0.46170000      -2.86160000       3.19160000
H       -0.84830000      -0.82430000       3.11660000
H       -2.82900000      -0.99510000       1.45420000
