14
Properties=species:S:1:pos:R:3 gdb_13652=T pbc="F F F"
O        0.08420000       1.39490000       0.27290000
C        0.02520000       0.01930000       0.10470000
C       -0.41960000      -0.77120000       1.28520000
C       -1.34250000      -0.67380000       0.06690000
C       -2.52780000       0.11610000       0.10940000
C       -3.53630000       0.78910000       0.10620000
C       -4.66670000       1.54400000       0.11370000
C       -5.67100000       2.21570000       0.11700000
H       -0.34200000       1.81570000      -0.48230000
H        0.78820000      -0.40840000      -0.54560000
H        0.03880000      -1.73310000       1.48240000
H       -0.71260000      -0.19920000       2.15690000
H       -1.40250000      -1.56270000      -0.55540000
H       -6.55420000       2.80440000       0.12440000
