17
Properties=species:S:1:pos:R:3 gdb_92064=T pbc="F F F"
C       -0.11400000       1.53020000      -0.04920000
C        0.11630000       0.02900000      -0.01190000
O        0.96250000      -0.32310000      -1.10750000
C        1.16120000      -1.70070000      -1.17830000
C        2.55690000      -2.19850000      -0.90010000
C        1.47220000      -2.35900000       0.13100000
O        1.51530000      -1.53380000       1.27600000
C        0.75050000      -0.40870000       1.31510000
O        0.62580000       0.18740000       2.34700000
H        0.83980000       2.06040000       0.00980000
H       -0.61210000       1.80330000      -0.98220000
H       -0.73070000       1.83360000       0.79770000
H       -0.84680000      -0.50000000      -0.10450000
H        0.53500000      -2.21750000      -1.90430000
H        2.90870000      -3.08480000      -1.41530000
H        3.30260000      -1.43670000      -0.70500000
H        1.08770000      -3.34600000       0.36410000
