16
Properties=species:S:1:pos:R:3 gdb_54974=T pbc="F F F"
C        0.18170000       1.62030000      -0.46110000
C       -0.03610000       0.18420000      -0.06850000
O        1.10120000      -0.68660000       0.00700000
C        0.43870000      -0.41030000       1.22010000
C        1.17650000       0.43200000       2.24360000
N        0.69720000       0.27730000       3.51020000
O        2.09010000       1.17810000       1.96190000
C       -1.23640000      -0.51430000      -0.64910000
O       -2.15130000       0.04920000      -1.18950000
H        1.05460000       2.02710000       0.04680000
H        0.32630000       1.68380000      -1.54370000
H       -0.70660000       2.20780000      -0.21410000
H       -0.12510000      -1.25360000       1.62770000
H       -0.02720000      -0.37820000       3.74450000
H        1.12920000       0.80630000       4.25000000
H       -1.19650000      -1.62130000      -0.53660000
