19
Properties=species:S:1:pos:R:3 gdb_89934=T pbc="F F F"
C        0.26900000       1.60310000      -0.11500000
C        0.03910000       0.12090000       0.08590000
O        0.79330000      -0.69990000      -0.85040000
C        1.23870000      -1.59120000       0.20400000
C        2.67060000      -1.23180000       0.68590000
C        2.06320000      -0.25130000       1.73540000
C        0.62740000      -0.63920000       1.29200000
C        0.88010000      -2.97200000      -0.00440000
C        0.59440000      -4.13060000      -0.15570000
H        1.32690000       1.86420000      -0.02930000
H       -0.07020000       1.89850000      -1.11290000
H       -0.29850000       2.18240000       0.62150000
H       -1.03290000      -0.10180000      -0.01990000
H        3.20340000      -2.07580000       1.12900000
H        3.28060000      -0.79110000      -0.10480000
H        2.27610000      -0.54180000       2.76600000
H        2.32890000       0.80160000       1.62180000
H       -0.06780000      -0.97130000       2.06110000
H        0.33820000      -5.15130000      -0.29890000
