20
Properties=species:S:1:pos:R:3 gdb_22672=T pbc="F F F"
C        0.44200000       1.28210000      -0.25320000
C        0.38930000      -0.22430000       0.00800000
C        0.42940000      -0.57000000       1.50110000
C        0.49890000      -2.08630000       1.77360000
C        1.98750000      -2.31510000       1.82620000
C        2.65520000      -0.97910000       2.05530000
O        1.59750000      -0.03430000       2.14270000
N        2.53480000      -3.44930000       1.66230000
O        3.93670000      -3.33850000       1.76350000
H        1.33990000       1.71710000       0.19320000
H        0.44820000       1.49900000      -1.32540000
H       -0.42530000       1.78840000       0.18560000
H       -0.52860000      -0.65210000      -0.41540000
H        1.22360000      -0.72590000      -0.50040000
H       -0.42570000      -0.10480000       2.00290000
H        0.04950000      -2.31860000       2.74600000
H        0.00430000      -2.69730000       1.01610000
H        3.23380000      -0.95720000       2.98550000
H        3.34990000      -0.75440000       1.23210000
H        4.22510000      -4.24400000       1.60840000
