19
Properties=species:S:1:pos:R:3 gdb_99918=T pbc="F F F"
N       -0.29570000       1.35910000      -0.09280000
C       -0.02370000      -0.05950000       0.01790000
C        0.95660000      -0.49190000       1.15930000
N        2.23270000       0.20640000       0.93380000
C        0.40060000      -0.02860000       2.44330000
N       -0.07080000       0.30260000       3.44560000
C        1.09400000      -2.01910000       1.17020000
C        1.49310000      -2.77620000       2.38120000
N        0.13070000      -2.90560000       1.82990000
H       -0.84640000       1.67410000       0.70050000
H        0.58170000       1.87090000      -0.05660000
H       -0.96420000      -0.60470000       0.13980000
H        0.42840000      -0.41360000      -0.91850000
H        2.89150000      -0.02370000       1.67250000
H        2.63820000      -0.13770000       0.06640000
H        1.42570000      -2.38870000       0.19990000
H        2.11400000      -3.66200000       2.28530000
H        1.61970000      -2.22580000       3.30990000
H       -0.51480000      -2.36290000       2.40180000
