19
Properties=species:S:1:pos:R:3 gdb_38457=T pbc="F F F"
C        0.17670000       1.66830000      -0.01850000
C        1.67640000       1.35620000      -0.10760000
O        2.02040000       0.57200000       1.04290000
C        1.42930000      -0.09200000      -0.07840000
C       -0.09730000       0.12360000       0.01670000
C       -0.81300000      -0.52560000       1.20970000
C       -1.40020000      -1.82850000       0.61210000
O       -1.11580000      -1.80900000      -0.79070000
C       -0.86990000      -0.46490000      -1.16230000
H       -0.12900000       2.24570000       0.85750000
H       -0.22100000       2.13840000      -0.92320000
H        2.47030000       1.93300000      -0.56700000
H        1.97030000      -0.92520000      -0.51340000
H       -0.12670000      -0.69990000       2.04070000
H       -1.61060000       0.12960000       1.57410000
H       -0.94570000      -2.73400000       1.02530000
H       -2.48520000      -1.88940000       0.77680000
H       -1.80970000       0.09250000      -1.32230000
H       -0.31070000      -0.47000000      -2.10360000
