20
Properties=species:S:1:pos:R:3 gdb_117633=T pbc="F F F"
C        0.77840000       1.48420000      -0.16890000
C       -0.21980000       0.36000000       0.12990000
O        0.04040000      -0.08670000       1.46390000
C       -1.67510000       0.84350000      -0.06800000
C       -2.70370000       0.10410000       0.79990000
N       -2.39150000      -1.33480000       0.87010000
H       -3.07040000      -1.82240000       1.44530000
H       -2.43010000      -1.75140000      -0.05640000
H       -0.65630000      -0.75600000       1.62450000
C        0.09460000      -0.80860000      -0.84210000
O        1.00650000      -1.66620000      -0.35710000
O       -0.38650000      -0.93390000      -1.93850000
H        1.80760000       1.12200000      -0.09430000
H        0.61860000       1.87560000      -1.17680000
H        0.64170000       2.29130000       0.55590000
H        1.16070000      -1.38890000       0.56590000
H       -1.74110000       1.91240000       0.15830000
H       -1.91040000       0.72010000      -1.12900000
H       -2.66030000       0.48940000       1.82440000
H       -3.71370000       0.31690000       0.42050000
