19
Properties=species:S:1:pos:R:3 gdb_39344=T pbc="F F F"
C       -0.00380000       1.46040000      -0.23020000
C        1.41600000       1.97470000       0.15890000
C        2.04480000       0.69040000       0.64610000
O        3.41940000       0.43710000       0.87870000
C        2.49220000       0.32160000       1.98870000
C        2.03160000      -1.08100000       2.32770000
C        1.46730000      -1.65380000       0.99580000
C        1.23240000      -0.45360000       0.06690000
O       -0.08630000       0.07880000       0.14830000
H       -0.80740000       1.98800000       0.28940000
H       -0.16950000       1.56440000      -1.31200000
H        1.95060000       2.37250000      -0.70880000
H        1.38840000       2.75400000       0.92360000
H        2.64240000       1.06130000       2.77150000
H        2.83070000      -1.70270000       2.74280000
H        1.24990000      -1.00470000       3.09200000
H        2.19650000      -2.32030000       0.52930000
H        0.54650000      -2.22350000       1.13960000
H        1.48970000      -0.68240000      -0.97950000
