16
Properties=species:S:1:pos:R:3 gdb_75225=T pbc="F F F"
C       -0.00170000       1.46180000       0.04180000
C        0.00160000      -0.02640000      -0.03870000
N        0.02890000      -0.70670000      -1.11380000
C       -0.00500000      -2.12920000      -0.76950000
C        0.04050000      -2.16240000       0.76920000
C        1.19680000      -1.50070000       1.43720000
N       -0.05490000      -0.74500000       1.21710000
C       -0.73720000      -3.14810000       1.47260000
N       -1.34600000      -3.97510000       2.00360000
H        0.84760000       1.81450000       0.63730000
H        0.04790000       1.89270000      -0.95790000
H       -0.90910000       1.80470000       0.54910000
H       -0.93030000      -2.58350000      -1.13910000
H        0.83070000      -2.65860000      -1.23820000
H        1.41360000      -1.72950000       2.47510000
H        2.05340000      -1.25310000       0.81500000
