21
Properties=species:S:1:pos:R:3 gdb_111800=T pbc="F F F"
O       -0.13360000       1.47610000      -0.23170000
C        0.02230000       0.08440000       0.02530000
C       -1.35950000      -0.54510000      -0.05320000
C       -2.06900000      -0.54440000      -1.43550000
C       -1.14350000      -1.50130000      -2.26240000
C       -0.72400000      -2.57370000      -1.21140000
C       -1.45470000      -2.08720000       0.08970000
C       -2.93920000      -2.27730000      -0.18220000
C       -3.30220000      -1.36320000      -1.08830000
H        0.73460000       1.88750000      -0.19170000
H        0.72000000      -0.36840000      -0.69320000
H        0.43750000      -0.08870000       1.03210000
H       -1.99210000      -0.05160000       0.69100000
H       -2.24000000       0.42830000      -1.89470000
H       -1.67260000      -1.93000000      -3.11640000
H       -0.27640000      -0.96130000      -2.65440000
H       -1.03710000      -3.58320000      -1.48730000
H        0.36080000      -2.59710000      -1.07000000
H       -1.07230000      -2.52740000       1.01220000
H       -3.53670000      -3.08850000       0.21540000
H       -4.26190000      -1.26990000      -1.58190000
