19
Properties=species:S:1:pos:R:3 gdb_52715=T pbc="F F F"
C       -0.00660000       1.46040000       0.02470000
C        0.03510000       0.00570000      -0.01170000
C        0.08070000      -1.19810000      -0.02240000
C        0.09260000      -2.66040000      -0.08160000
O       -1.18340000      -3.21640000       0.24410000
C        0.58390000      -3.16530000      -1.45600000
C        0.69270000      -4.66920000      -1.48740000
C        1.72390000      -5.35710000      -2.27190000
O        1.85290000      -5.22630000      -0.85570000
H        1.00460000       1.88180000       0.02730000
H       -0.53280000       1.86840000      -0.84520000
H       -0.51790000       1.82100000       0.92380000
H        0.77300000      -3.05420000       0.68300000
H       -1.84740000      -2.69400000      -0.21900000
H       -0.11750000      -2.82320000      -2.22800000
H        1.56030000      -2.72110000      -1.67550000
H       -0.22900000      -5.20430000      -1.26290000
H        1.54640000      -6.36840000      -2.63550000
H        2.42860000      -4.77120000      -2.86170000
