14
Properties=species:S:1:pos:R:3 gdb_9446=T pbc="F F F"
C       -0.17550000       1.61160000       0.09720000
C       -0.00010000       0.09770000       0.02880000
O        1.12140000      -0.29120000      -0.82540000
C        1.85570000      -0.94040000       0.22980000
C        0.77450000      -0.53400000       1.23070000
O        0.59820000      -0.61160000       2.40340000
C       -1.22520000      -0.60470000      -0.31500000
C       -2.23840000      -1.19670000      -0.57530000
H        0.76710000       2.08960000       0.37620000
H       -0.49040000       1.99140000      -0.87810000
H       -0.93900000       1.86430000       0.83760000
H        1.95400000      -2.02350000       0.08150000
H        2.84780000      -0.50430000       0.39840000
H       -3.13330000      -1.71810000      -0.81190000
