12
Properties=species:S:1:pos:R:3 gdb_453=T pbc="F F F"
O        0.00260000      -0.03870000       0.00350000
C       -0.01380000       1.17100000       0.00980000
N       -1.11100000       1.99180000      -0.23420000
C       -0.81060000       3.37330000       0.11110000
C        0.72280000       3.39500000      -0.06840000
N        1.06070000       2.01870000       0.26250000
H       -2.01790000       1.59620000      -0.04380000
H       -1.31400000       4.08240000      -0.55130000
H       -1.08110000       3.61360000       1.14960000
H        0.98660000       3.65340000      -1.10430000
H        1.20690000       4.11060000       0.60140000
H        1.97800000       1.64980000       0.06810000
