16
Properties=species:S:1:pos:R:3 gdb_3049=T pbc="F F F"
O       -0.16220000       0.40190000      -0.78440000
C        0.03210000       1.24390000       0.06690000
N        1.23850000       1.55110000       0.61270000
C        2.48820000       0.92630000       0.20280000
C        3.53520000       1.94760000      -0.17800000
C        4.37430000       2.60660000       0.89330000
C        4.99590000       1.60730000      -0.05030000
H       -0.77960000       1.86420000       0.49770000
H        1.27800000       2.28990000       1.29720000
H        2.87410000       0.28720000       1.00960000
H        2.23850000       0.27540000      -0.63870000
H        3.25570000       2.57380000      -1.02070000
H        4.63040000       3.65380000       0.77880000
H        4.22260000       2.29680000       1.92300000
H        5.25680000       0.63160000       0.34660000
H        5.67480000       1.97000000      -0.81340000
