21
Properties=species:S:1:pos:R:3 gdb_109885=T pbc="F F F"
C       -0.72140000       1.40800000      -0.00850000
C       -0.14160000       0.00090000       0.07940000
C        0.95010000      -0.50050000      -0.94540000
C        1.67130000       0.52650000      -1.82170000
O        2.91680000       0.02970000      -2.28170000
C        1.80010000      -1.01100000       0.25280000
O        2.84960000      -0.09130000       0.63190000
C        1.96980000       0.57200000       1.57840000
C        0.79980000      -0.38280000       1.25720000
H        0.04710000       2.18580000       0.01350000
H       -1.29380000       1.53870000      -0.93300000
H       -1.40220000       1.59460000       0.82970000
H       -0.97330000      -0.71140000       0.07230000
H        0.59350000      -1.32030000      -1.57550000
H        1.07200000       0.75180000      -2.71030000
H        1.80850000       1.47120000      -1.27880000
H        3.48690000       0.01740000      -1.50290000
H        2.14080000      -2.04850000       0.25180000
H        2.36170000       0.48460000       2.59830000
H        1.83120000       1.63380000       1.34290000
H        0.36390000      -0.90980000       2.10540000
