17
Properties=species:S:1:pos:R:3 gdb_111088=T pbc="F F F"
O       -0.12820000       1.41230000      -0.23390000
C        0.01670000       0.05030000       0.14170000
C       -1.35970000      -0.58030000       0.03960000
C       -2.01380000      -0.71780000      -1.36060000
C       -1.16400000      -1.98240000      -1.60410000
C       -1.43930000      -2.15210000      -0.06690000
C       -2.95690000      -2.28290000      -0.12530000
O       -3.72820000      -3.01400000       0.41630000
O       -3.31310000      -1.29350000      -1.01460000
H        0.70740000       1.86200000      -0.07720000
H        0.75170000      -0.46170000      -0.49610000
H        0.36950000      -0.04590000       1.18040000
H       -2.01920000      -0.12160000       0.78190000
H       -2.14950000       0.09940000      -2.06310000
H       -1.57920000      -2.73080000      -2.28180000
H       -0.11970000      -1.78680000      -1.84250000
H       -0.91140000      -2.84360000       0.58450000
