15
Properties=species:S:1:pos:R:3 gdb_24101=T pbc="F F F"
N       -0.07340000      -1.13910000      -0.06100000
C       -0.02140000       0.01370000      -0.02230000
C        0.04770000       1.47350000       0.05450000
N        1.40650000       1.94260000      -0.15450000
C        1.60110000       3.32180000      -0.04270000
C        0.66320000       4.31460000       0.00020000
O        1.27860000       5.53710000       0.04130000
C        2.61070000       5.30960000       0.03970000
C        2.87870000       3.98040000      -0.01390000
H       -0.59510000       1.89360000      -0.73000000
H       -0.38320000       1.79420000       1.01950000
H        2.08870000       1.40100000       0.35890000
H       -0.41230000       4.33170000      -0.00620000
H        3.23850000       6.18470000       0.07660000
H        3.85080000       3.51320000      -0.03860000
