18
Properties=species:S:1:pos:R:3 gdb_109325=T pbc="F F F"
O       -0.00140000       1.43630000       0.03570000
C       -0.00190000       0.02240000      -0.01200000
C       -1.41170000      -0.47140000      -0.03500000
C       -2.53040000       0.25000000      -0.05000000
C       -3.77550000      -0.59910000      -0.01580000
C       -3.24440000      -2.02020000      -0.32030000
C       -1.72800000      -1.96400000       0.03830000
C       -0.89640000      -2.79350000      -0.83620000
N       -0.23230000      -3.43950000      -1.52800000
H        0.90400000       1.73860000      -0.07740000
H        0.52850000      -0.35530000      -0.90200000
H        0.51990000      -0.41230000       0.86040000
H       -2.54460000       1.33230000      -0.04160000
H       -4.25510000      -0.54620000       0.97170000
H       -4.53180000      -0.28010000      -0.74090000
H       -3.76350000      -2.81050000       0.22550000
H       -3.34550000      -2.23330000      -1.38740000
H       -1.55960000      -2.32310000       1.06460000
