21
Properties=species:S:1:pos:R:3 gdb_101922=T pbc="F F F"
C        0.07040000       1.79070000      -0.78170000
C       -0.09060000       0.26950000      -0.76070000
C       -1.20370000      -0.21620000       0.18150000
N       -2.48120000       0.40190000      -0.19380000
C       -3.27600000      -0.14430000      -1.29280000
C       -3.74310000      -0.25750000       0.11860000
C       -1.21570000      -1.75590000       0.19900000
N       -1.12160000      -2.32380000       1.43540000
O       -1.31420000      -2.42640000      -0.81480000
H        0.86130000       2.08500000      -1.47850000
H       -0.85830000       2.27880000      -1.08460000
H        0.33930000       2.17560000       0.20870000
H       -0.30980000      -0.11420000      -1.76260000
H        0.85010000      -0.20310000      -0.45210000
H       -0.98990000       0.14670000       1.19680000
H       -3.71300000       0.60120000      -1.95230000
H       -2.93550000      -1.05770000      -1.76940000
H       -3.72070000      -1.25040000       0.56360000
H       -4.52690000       0.39170000       0.50040000
H       -1.04490000      -1.77780000       2.27480000
H       -1.11680000      -3.32900000       1.50420000
