15
Properties=species:S:1:pos:R:3 gdb_70226=T pbc="F F F"
O        0.05350000       1.43080000      -0.19630000
C        0.02580000       0.04620000      -0.05000000
C       -0.49460000      -0.84490000      -1.16030000
C       -1.29720000      -0.60970000       0.09910000
O       -1.45330000      -1.62210000       1.07180000
C       -0.39740000      -2.35280000       1.50030000
O       -0.55000000      -3.35930000       2.12000000
O        0.83860000      -1.90680000       1.16420000
C        1.06300000      -0.51640000       0.89670000
H        0.73650000       1.65500000      -0.83890000
H       -0.86300000      -0.35810000      -2.05630000
H       -0.02680000      -1.81170000      -1.30980000
H       -2.20190000      -0.01860000       0.04200000
H        2.07590000      -0.46380000       0.48700000
H        1.03580000       0.05460000       1.83290000
