20
Properties=species:S:1:pos:R:3 gdb_101595=T pbc="F F F"
C       -0.13890000       1.28580000       0.13290000
N       -0.02520000      -0.13530000      -0.11550000
C        0.67770000      -0.63760000      -1.16430000
O        1.28600000       0.01260000      -1.98630000
O        0.59670000      -1.99680000      -1.16060000
C        1.32770000      -2.68840000      -2.20640000
C        2.78390000      -2.86760000      -1.79600000
C        0.57710000      -4.00430000      -2.39550000
O        0.56310000      -4.79660000      -1.22220000
H        0.45900000       1.79880000      -0.62100000
H       -1.17730000       1.62790000       0.05370000
H        0.24100000       1.54870000       1.12660000
H       -0.49250000      -0.79250000       0.48540000
H        1.26160000      -2.08770000      -3.11800000
H        2.85350000      -3.48530000      -0.89750000
H        3.33720000      -3.36580000      -2.59870000
H        3.24670000      -1.89570000      -1.61400000
H       -0.44410000      -3.78620000      -2.74380000
H        1.07640000      -4.59660000      -3.16910000
H        0.18650000      -4.24440000      -0.52820000
