15
Properties=species:S:1:pos:R:3 gdb_15125=T pbc="F F F"
N       -0.00390000      -1.09080000       0.51420000
C        0.02640000       0.05080000       0.34590000
C        0.01950000       1.50020000       0.12750000
O        1.34270000       1.96920000       0.08420000
C        1.41520000       3.36070000      -0.17890000
C        2.86310000       3.76220000      -0.18070000
C        3.26290000       5.14410000       0.10810000
O        3.43420000       4.11230000       1.07810000
H       -0.51710000       1.70890000      -0.81330000
H       -0.55410000       1.97580000       0.94000000
H        0.95910000       3.58570000      -1.15830000
H        0.87600000       3.93460000       0.59060000
H        3.50390000       3.14980000      -0.81500000
H        4.17730000       5.53940000      -0.33070000
H        2.50390000       5.88870000       0.34610000
