21
Properties=species:S:1:pos:R:3 gdb_53956=T pbc="F F F"
C        0.31510000       1.56700000      -0.38600000
C        0.03160000       0.07160000      -0.17370000
C        0.51980000      -0.36460000       1.22130000
N       -1.38020000      -0.35450000      -0.29060000
C       -2.42510000       0.33020000       0.45500000
C       -2.36720000       0.42400000      -1.03070000
C        0.87440000      -0.72790000      -1.20520000
N        0.26900000      -1.83510000      -1.69850000
O        2.00610000      -0.38660000      -1.49930000
H        1.38840000       1.73430000      -0.29060000
H        0.02820000       1.90000000      -1.38690000
H       -0.20280000       2.18360000       0.35510000
H        0.02700000       0.22480000       2.00100000
H        0.29320000      -1.42040000       1.39330000
H        1.59910000      -0.21750000       1.30160000
H       -3.15190000      -0.31100000       0.94650000
H       -2.16490000       1.22700000       1.01250000
H       -2.07910000       1.38230000      -1.45240000
H       -3.04920000      -0.15390000      -1.64870000
H       -0.66080000      -2.06440000      -1.38730000
H        0.78470000      -2.43570000      -2.31900000
