18
Properties=species:S:1:pos:R:3 gdb_54327=T pbc="F F F"
C        0.84640000       0.75050000       0.80190000
C       -0.24650000       0.06930000       0.01040000
O       -1.41630000       0.14170000       0.32680000
C        0.14360000      -0.75220000      -1.20370000
C        1.45440000      -0.45400000      -1.92120000
C        1.38780000       0.89190000      -2.61790000
O        2.00830000       1.86700000      -2.27350000
C       -0.39950000      -2.15280000      -1.17780000
N       -0.97470000      -1.15680000      -2.07090000
H        1.57490000       0.01110000       1.15470000
H        1.39450000       1.46110000       0.17430000
H        0.40470000       1.26620000       1.65480000
H        2.30370000      -0.46040000      -1.23350000
H        1.60730000      -1.22740000      -2.68180000
H        0.68420000       0.93010000      -3.47650000
H        0.17610000      -2.94110000      -1.65620000
H       -0.96490000      -2.44890000      -0.29900000
H       -1.82570000      -0.79150000      -1.64070000
