27
Properties=species:S:1:pos:R:3 gdb_59982=T pbc="F F F"
C       -0.19320000       1.48990000      -0.03750000
C        0.02670000      -0.02610000      -0.03110000
C        0.93190000      -0.47840000      -1.17300000
O        0.65100000      -0.45290000       1.17650000
C       -0.20460000      -0.65910000       2.29970000
C       -0.83930000      -2.05170000       2.22000000
C        0.65730000      -0.44750000       3.55940000
C        1.25990000       0.96350000       3.58410000
C       -0.12300000      -0.72350000       4.85240000
H        0.76660000       2.01230000       0.02760000
H       -0.69580000       1.80300000      -0.95880000
H       -0.81300000       1.80930000       0.80550000
H       -0.94950000      -0.52470000      -0.13730000
H        1.92300000      -0.02530000      -1.06840000
H        1.05150000      -1.56490000      -1.15950000
H        0.51670000      -0.18220000      -2.14110000
H       -1.00460000       0.10010000       2.30180000
H       -1.58570000      -2.20140000       3.00490000
H       -1.34300000      -2.19330000       1.25920000
H       -0.07070000      -2.82580000       2.31510000
H        1.48330000      -1.16940000       3.49130000
H        1.93350000       1.08330000       4.43900000
H        1.82060000       1.16300000       2.66960000
H        0.47360000       1.72340000       3.67520000
H       -0.45080000      -1.76350000       4.92950000
H        0.50130000      -0.50940000       5.72570000
H       -1.01190000      -0.08410000       4.92170000
