14
Properties=species:S:1:pos:R:3 gdb_25237=T pbc="F F F"
O       -0.03400000      -0.05830000       0.03650000
C        0.04010000       1.14740000      -0.00250000
N       -1.05620000       2.01890000      -0.05380000
C       -0.74070000       3.44400000       0.01620000
C        0.75020000       3.35690000       0.00990000
C        1.20040000       2.07070000      -0.00770000
N        2.57290000       2.01400000      -0.02460000
C        2.93780000       3.27420000      -0.01970000
N        1.86170000       4.14620000      -0.00160000
H       -1.98370000       1.66310000       0.10560000
H       -1.14690000       3.99480000      -0.84370000
H       -1.14000000       3.91080000       0.92810000
H        3.95430000       3.63930000      -0.02650000
H        1.91320000       5.15150000       0.00830000
