16
Properties=species:S:1:pos:R:3 gdb_126097=T pbc="F F F"
C        0.09940000       1.57010000      -0.08600000
C       -0.03760000       0.06200000       0.08780000
O        0.54420000      -0.61250000      -1.05880000
C        1.47480000      -1.65450000      -0.70880000
C        1.59580000      -1.51700000       0.77120000
N        2.26120000      -2.03650000       1.79430000
N        1.75810000      -1.34180000       2.82260000
N        0.82760000      -0.42050000       2.54500000
C        0.72390000      -0.53350000       1.22720000
H        1.15360000       1.85690000      -0.12750000
H       -0.38670000       1.88530000      -1.01290000
H       -0.37400000       2.08960000       0.75290000
H       -1.10390000      -0.20460000       0.13870000
H        1.07670000      -2.63190000      -1.01580000
H        2.41530000      -1.48810000      -1.24820000
H        2.07440000      -1.49980000       3.76580000
