20
Properties=species:S:1:pos:R:3 gdb_120835=T pbc="F F F"
O       -0.08550000       1.39930000       0.06200000
C       -0.14770000       0.02190000       0.39510000
C       -1.26540000      -0.60450000      -0.43230000
C       -1.39170000      -2.09320000      -0.18960000
C       -2.17210000      -2.62130000       1.00170000
C       -2.69200000      -2.80620000      -0.40080000
O       -3.77640000      -2.02520000      -0.84140000
C       -4.99800000      -2.41290000      -0.41190000
N       -6.02680000      -1.80690000      -0.81840000
H        0.60740000       1.80670000       0.58970000
H        0.80720000      -0.48540000       0.17670000
H       -0.35330000      -0.12390000       1.46790000
H       -2.20800000      -0.10010000      -0.20270000
H       -1.06210000      -0.41490000      -1.49270000
H       -0.51410000      -2.67200000      -0.46780000
H       -1.80800000      -3.48790000       1.54240000
H       -2.68470000      -1.88520000       1.61250000
H       -2.67080000      -3.79990000      -0.84230000
H       -4.96360000      -3.25860000       0.28730000
H       -6.85820000      -2.21680000      -0.39780000
