18
Properties=species:S:1:pos:R:3 gdb_46358=T pbc="F F F"
O       -0.14690000      -0.00560000      -0.22310000
C       -0.13700000       1.19550000      -0.14120000
C       -1.18620000       2.32890000      -0.09500000
C        0.03020000       3.29260000      -0.01520000
N        0.89640000       2.10460000      -0.05010000
C        2.32120000       1.95640000      -0.05570000
C        2.97020000       0.80930000       0.75990000
O        3.81530000       0.46780000      -0.35790000
C        3.03230000       1.27640000      -1.25590000
H       -1.79750000       2.41230000      -0.99500000
H       -1.83060000       2.30920000       0.78540000
H        0.15350000       3.95850000      -0.87580000
H        0.11200000       3.87340000       0.90940000
H        2.76110000       2.92740000       0.18150000
H        3.54730000       1.08790000       1.64790000
H        2.26530000       0.00640000       1.00280000
H        2.35100000       0.67270000      -1.86910000
H        3.65550000       1.90570000      -1.90060000
