21
Properties=species:S:1:pos:R:3 gdb_55453=T pbc="F F F"
C        0.69360000       0.23230000       0.86550000
C       -0.19130000       0.32510000      -0.35600000
O        0.04110000       1.06660000      -1.28360000
C       -1.43860000      -0.56430000      -0.40550000
C       -1.48220000      -1.39520000      -1.69710000
C       -2.72450000      -2.29480000      -1.70010000
C       -2.79450000      -3.10540000      -0.39740000
C       -2.66700000      -2.17490000       0.80970000
O       -1.48500000      -1.38790000       0.74720000
H        1.53370000       0.91920000       0.75900000
H        0.11680000       0.46570000       1.76620000
H        1.04860000      -0.79500000       0.99420000
H       -2.30680000       0.12150000      -0.40280000
H       -1.46420000      -0.71570000      -2.55270000
H       -0.57500000      -2.01080000      -1.74650000
H       -3.62410000      -1.67020000      -1.78860000
H       -2.71590000      -2.95870000      -2.57060000
H       -3.73360000      -3.66630000      -0.33070000
H       -1.97590000      -3.83510000      -0.36900000
H       -3.54910000      -1.51370000       0.86850000
H       -2.60610000      -2.73670000       1.74610000
