19
Properties=species:S:1:pos:R:3 gdb_96011=T pbc="F F F"
C       -0.15110000       1.55860000      -0.11200000
C       -0.02070000       0.04020000      -0.04650000
O        0.95990000      -0.43130000      -0.97520000
C        2.03160000      -0.96300000      -0.23770000
O        1.48600000      -1.45520000       0.97030000
C        0.43830000      -0.56310000       1.32400000
C        0.88520000       0.44790000       2.36420000
C        2.03910000       0.19710000       3.23390000
O        2.12780000       1.11160000       2.13250000
H        0.77710000       2.05230000       0.18400000
H       -0.39460000       1.85590000      -1.13520000
H       -0.95800000       1.90950000       0.54090000
H       -0.97410000      -0.41630000      -0.33800000
H        2.47010000      -1.80030000      -0.78980000
H        2.78930000      -0.19360000      -0.02790000
H       -0.36720000      -1.16060000       1.76760000
H        0.09060000       1.09560000       2.73960000
H        2.07870000       0.65680000       4.21990000
H        2.59750000      -0.72620000       3.10800000
