15
Properties=species:S:1:pos:R:3 gdb_16165=T pbc="F F F"
O        0.01680000       1.45530000       0.24940000
C        0.03940000       0.07980000      -0.08190000
C       -1.34380000      -0.51590000      -0.04660000
C       -1.99850000      -1.01260000       1.22620000
C       -1.74900000      -1.97320000       0.09900000
O       -2.82280000      -2.15620000      -0.81910000
C       -3.02740000      -0.93190000      -1.36800000
N       -2.26540000       0.02850000      -1.03020000
H       -0.64520000       1.86010000      -0.32390000
H        0.47940000      -0.08440000      -1.07840000
H        0.68340000      -0.41340000       0.65350000
H       -1.35030000      -1.12050000       2.08940000
H       -3.01660000      -0.70790000       1.44390000
H       -1.10990000      -2.84290000       0.17800000
H       -3.84700000      -0.88130000      -2.07420000
