14
Properties=species:S:1:pos:R:3 gdb_21730=T pbc="F F F"
N        0.09440000       1.55100000       0.14600000
H        0.54220000       0.71820000      -0.22600000
H        1.43690000       2.42570000       1.30770000
H       -0.39860000       1.99030000      -0.62410000
C       -0.85290000       1.18010000       1.21850000
C       -0.07540000       0.82470000       2.44910000
N       -0.46770000      -0.09000000       3.30300000
O        0.47990000      -0.09840000       4.31010000
C        1.44450000       0.80850000       4.02810000
C        1.15340000       1.43280000       2.85560000
O        1.83360000       2.39730000       2.20320000
H       -1.46960000       2.06380000       1.42240000
H       -1.53670000       0.36190000       0.95820000
H        2.25020000       0.89200000       4.73780000
