18
Properties=species:S:1:pos:R:3 gdb_46530=T pbc="F F F"
N        0.09490000       1.33120000      -0.01960000
C        0.04040000       0.07170000      -0.02850000
C       -1.21440000      -0.76870000       0.05840000
C       -0.76670000      -2.13990000      -0.44620000
C       -1.59340000      -3.40460000      -0.13830000
C       -1.79380000      -3.48090000      -1.66410000
O       -0.98490000      -2.30370000      -1.87150000
C        0.72310000      -2.12890000      -0.08760000
O        1.13030000      -0.75560000      -0.11200000
H        1.06460000       1.64790000      -0.07600000
H       -1.53370000      -0.83150000       1.10560000
H       -2.03000000      -0.34460000      -0.52670000
H       -1.02550000      -4.22790000       0.30060000
H       -2.49490000      -3.23720000       0.45340000
H       -1.36980000      -4.36150000      -2.16010000
H       -2.82190000      -3.33580000      -2.01530000
H        0.89180000      -2.54280000       0.91580000
H        1.31880000      -2.68310000      -0.81610000
