17
Properties=species:S:1:pos:R:3 gdb_51903=T pbc="F F F"
O       -0.36490000       1.54050000      -1.41450000
C       -0.14940000       1.78330000      -0.25120000
N        0.92320000       1.30220000       0.46480000
C        1.89910000       0.46880000      -0.06720000
N        2.85400000       0.06240000       0.65730000
C        3.86300000      -0.78880000       0.08720000
C        4.15770000      -2.11090000       0.83080000
O        4.17310000      -2.83860000      -0.41470000
C        3.62210000      -1.71930000      -1.13400000
H       -0.79850000       2.42710000       0.37100000
H        1.02890000       1.55540000       1.43740000
H        1.72760000       0.24060000      -1.12070000
H        4.77880000      -0.20060000      -0.03510000
H        5.10640000      -2.19270000       1.37150000
H        3.33260000      -2.42420000       1.48410000
H        2.56230000      -1.87600000      -1.38100000
H        4.17740000      -1.50390000      -2.05300000
