22
Properties=species:S:1:pos:R:3 gdb_61302=T pbc="F F F"
C       -0.24750000       1.56410000      -0.02940000
C        0.06770000       0.06570000       0.04990000
C        0.81200000      -0.41370000      -1.22130000
C        0.03540000      -0.23740000      -2.44650000
N       -0.59510000      -0.09420000      -3.40470000
C        0.90410000      -0.30460000       1.29020000
C        0.22210000      -0.02180000       2.61260000
C       -0.79560000      -0.99010000       3.16530000
C        0.55250000      -0.84960000       3.82850000
H        0.67430000       2.15860000      -0.03780000
H       -0.80940000       1.80130000      -0.93730000
H       -0.84700000       1.88680000       0.82540000
H       -0.87940000      -0.48570000       0.10300000
H        1.75780000       0.13210000      -1.32930000
H        1.07030000      -1.47510000      -1.13040000
H        1.14980000      -1.37430000       1.24540000
H        1.86380000       0.23100000       1.24840000
H        0.02520000       1.02830000       2.80810000
H       -1.66670000      -0.59430000       3.67530000
H       -0.98860000      -1.89830000       2.60280000
H        1.26190000      -1.66250000       3.71050000
H        0.60480000      -0.35400000       4.79150000
