23
Properties=species:S:1:pos:R:3 gdb_88423=T pbc="F F F"
C       -1.67140000      -0.37400000       1.25310000
C       -0.42110000      -0.95720000       0.64780000
O        0.36930000      -0.07960000      -0.15500000
C        0.96000000      -0.60430000       1.04330000
C        1.35810000       0.38940000       2.11070000
C        1.83350000       1.72120000       1.55300000
C        0.66390000       0.39620000       3.45930000
C        2.06870000      -0.14030000       3.34240000
C        2.34300000      -1.61420000       3.55160000
H       -1.47820000       0.60120000       1.70280000
H       -2.43510000      -0.25160000       0.47760000
H       -2.08010000      -1.04160000       2.01950000
H       -0.55650000      -1.94640000       0.20210000
H        1.72380000      -1.35520000       0.82740000
H        1.04620000       2.20150000       0.96570000
H        2.12730000       2.39740000       2.36170000
H        2.69930000       1.58770000       0.89430000
H        0.50220000       1.35340000       3.94500000
H       -0.12500000      -0.32740000       3.63520000
H        2.85390000       0.51000000       3.72100000
H        1.52000000      -2.23510000       3.18370000
H        3.25600000      -1.93400000       3.03620000
H        2.47030000      -1.83670000       4.61670000
