17
Properties=species:S:1:pos:R:3 gdb_24730=T pbc="F F F"
C       -0.01210000       1.40310000       0.01820000
C        1.41970000       1.94450000       0.00810000
N        2.14660000       1.27770000      -1.06020000
C        3.35000000       1.61830000      -1.64280000
C        3.61470000       0.61700000      -2.53920000
N        2.61740000      -0.33200000      -2.51970000
C        1.75970000       0.09350000      -1.61910000
C        0.46340000      -0.54160000      -1.21070000
O       -0.01170000      -0.01030000       0.01960000
H       -0.52840000       1.72460000       0.92630000
H       -0.56570000       1.79090000      -0.85250000
H        1.42010000       3.02670000      -0.15960000
H        1.90400000       1.74500000       0.97130000
H        3.88090000       2.51370000      -1.36430000
H        4.46520000       0.52440000      -3.19740000
H       -0.29420000      -0.40180000      -2.00050000
H        0.59670000      -1.61630000      -1.06580000
