21
Properties=species:S:1:pos:R:3 gdb_38322=T pbc="F F F"
C       -0.06440000       1.59770000       0.04440000
C        1.45920000       1.26720000       0.05750000
C        1.13420000       0.19380000       1.14050000
C        0.01540000       0.04080000       0.06550000
C        1.13990000       0.17320000      -0.99470000
C        1.01370000       0.31170000      -2.53450000
C        2.56300000       0.14550000      -2.58640000
C        2.07140000      -0.92710000      -1.56730000
C        0.92680000      -1.24430000      -2.57730000
H       -0.46050000       2.06980000       0.94790000
H       -0.46490000       2.06340000      -0.85900000
H        2.28630000       1.97880000       0.06450000
H        1.83840000      -0.63460000       1.24730000
H        0.81490000       0.57620000       2.11400000
H       -0.82050000      -0.66020000       0.08170000
H        0.40900000       1.01990000      -3.10310000
H        2.97300000      -0.23720000      -3.52520000
H        3.16530000       0.96740000      -2.19230000
H        2.68490000      -1.64590000      -1.02200000
H        0.02090000      -1.70350000      -2.17490000
H        1.23220000      -1.71600000      -3.51550000
