23
Properties=species:S:1:pos:R:3 gdb_122743=T pbc="F F F"
C        0.56700000       1.25090000      -0.39390000
C       -0.32630000       0.20810000       0.30250000
C        0.29130000      -0.37490000       1.48970000
C        0.81890000      -0.83520000       2.47000000
C        1.45640000      -1.42490000       3.64240000
C        2.01360000      -2.83740000       3.37980000
C        2.67340000      -3.43100000       4.61690000
O        3.15550000      -4.71650000       4.29620000
C        3.78590000      -5.35220000       5.38050000
H        1.51180000       0.80180000      -0.71240000
H        0.06390000       1.65830000      -1.27610000
H        0.79910000       2.07750000       0.28320000
H       -1.28220000       0.67230000       0.57820000
H       -0.57610000      -0.59060000      -0.40800000
H        2.26940000      -0.77030000       3.98570000
H        0.73550000      -1.46520000       4.47070000
H        1.20530000      -3.49860000       3.05180000
H        2.74440000      -2.80090000       2.56560000
H        3.50140000      -2.78450000       4.95990000
H        1.94950000      -3.48860000       5.44980000
H        4.65930000      -4.78330000       5.73850000
H        3.09870000      -5.49110000       6.23080000
H        4.12210000      -6.33330000       5.03590000
