21
Properties=species:S:1:pos:R:3 gdb_39329=T pbc="F F F"
C       -0.14320000       1.38990000      -0.10370000
C        1.29480000       0.88120000      -0.02880000
C        1.97240000       0.83620000       1.34120000
C        1.51900000      -0.51260000       1.95860000
C        0.11420000      -0.79220000       1.37400000
C       -0.18230000      -2.25080000       0.95650000
C        0.13500000      -2.24320000      -0.55070000
O       -0.25260000      -0.94770000      -1.00360000
C        0.11410000      -0.06670000       0.01670000
H       -0.56170000       1.92970000       0.74240000
H       -0.47420000       1.74460000      -1.07460000
H        1.89630000       0.97790000      -0.92540000
H        3.06140000       0.89740000       1.26120000
H        1.65500000       1.67870000       1.96830000
H        2.20530000      -1.30160000       1.62630000
H        1.53460000      -0.51400000       3.05300000
H       -0.66360000      -0.40950000       2.04200000
H        0.41180000      -2.98480000       1.50770000
H       -1.23930000      -2.48710000       1.11030000
H        1.21110000      -2.40320000      -0.72440000
H       -0.42330000      -2.98290000      -1.12920000
