18
Properties=species:S:1:pos:R:3 gdb_14780=T pbc="F F F"
C        0.07090000       1.21490000      -0.21520000
O       -0.06000000      -0.18500000      -0.14180000
C       -1.37730000      -0.59970000       0.13080000
C       -1.39280000      -2.12270000       0.19120000
C       -2.78500000      -2.67290000       0.47570000
O       -2.73980000      -4.09740000       0.62720000
C       -3.22680000      -4.85640000      -0.37150000
O       -3.20230000      -6.04950000      -0.35010000
H        1.11970000       1.43370000      -0.42860000
H       -0.55220000       1.64240000      -1.01690000
H       -0.20860000       1.70200000       0.73250000
H       -1.72770000      -0.17220000       1.08720000
H       -2.06660000      -0.23460000      -0.65200000
H       -1.02400000      -2.52310000      -0.75960000
H       -0.70370000      -2.46070000       0.97150000
H       -3.18310000      -2.27890000       1.41600000
H       -3.48880000      -2.40550000      -0.32430000
H       -3.65360000      -4.25360000      -1.19830000
