17
Properties=species:S:1:pos:R:3 gdb_73331=T pbc="F F F"
C        0.00800000       1.52170000      -0.03700000
C        0.01580000       0.01200000       0.02970000
C       -0.37190000      -0.71640000      -1.30290000
O       -1.36980000      -1.71950000      -0.90710000
C       -0.84140000      -1.92820000       0.33030000
N        0.01610000      -2.82020000       0.60440000
C        0.99890000      -2.12010000       1.45970000
C        0.62640000      -0.64070000       1.28420000
N       -0.82580000      -0.65540000       1.04420000
H        0.82140000       1.88350000      -0.67590000
H       -0.93880000       1.88380000      -0.45150000
H        0.13400000       1.96290000       0.95450000
H       -0.86160000      -0.02010000      -1.98630000
H        0.45980000      -1.22240000      -1.80050000
H        0.93080000      -2.38930000       2.52280000
H        2.00140000      -2.39000000       1.11260000
H        0.98490000       0.06180000       2.03340000
