17
Properties=species:S:1:pos:R:3 gdb_8324=T pbc="F F F"
O       -0.45850000      -0.03240000       0.00980000
C       -0.26890000       1.15340000       0.01330000
C       -1.14450000       2.43070000       0.03320000
C        0.20170000       3.21630000       0.01770000
C        0.44510000       4.29660000      -1.06550000
C        0.21140000       5.37400000       0.02960000
C        0.47720000       4.28450000       1.10520000
N        0.87280000       1.92000000       0.00060000
H       -1.77350000       2.55500000      -0.85040000
H       -1.74710000       2.54520000       0.93630000
H        1.48660000       4.28690000      -1.40260000
H       -0.20610000       4.29020000      -1.94320000
H        0.87010000       6.24380000       0.02470000
H       -0.82500000       5.72070000       0.04680000
H       -0.14780000       4.26820000       2.00160000
H        1.52810000       4.27120000       1.41130000
H        1.85000000       1.66490000      -0.01480000
