18
Properties=species:S:1:pos:R:3 gdb_73092=T pbc="F F F"
O        0.01170000       1.32370000      -0.53810000
C        0.04030000       0.01630000       0.00360000
C        0.29790000      -1.09330000      -1.05600000
C       -1.23650000      -1.31310000      -1.15660000
C       -1.41190000      -0.51000000       0.17040000
N       -1.62280000      -1.39490000       1.30140000
C       -0.65240000      -1.67730000       2.06060000
O        0.62230000      -1.20740000       2.04930000
C        0.83080000      -0.00220000       1.30310000
H        0.86660000       1.50050000      -0.94670000
H        0.81760000      -0.76340000      -1.95960000
H        0.82620000      -1.95410000      -0.63780000
H       -1.68000000      -0.79650000      -2.00970000
H       -1.59800000      -2.34150000      -1.12380000
H       -2.18060000       0.26640000       0.16200000
H       -0.76690000      -2.40700000       2.86030000
H        1.91080000       0.06670000       1.13640000
H        0.51200000       0.85410000       1.91080000
