15
Properties=species:S:1:pos:R:3 gdb_67545=T pbc="F F F"
O        0.27060000       1.41160000       0.30620000
C        0.14620000       0.05100000       0.11320000
C        1.31040000      -0.74340000       0.76220000
C        1.12110000      -2.22810000       0.69730000
C        1.55220000      -1.50620000      -0.54860000
C        0.37200000      -0.75500000      -1.19280000
O       -0.94880000      -1.37950000      -1.03200000
C       -1.24800000      -0.62230000       0.08780000
O       -2.28280000      -0.56820000       0.66920000
H       -0.50000000       1.85710000      -0.06370000
H        2.01400000      -0.25630000       1.42420000
H        1.90730000      -2.80150000       1.17730000
H        0.13800000      -2.68250000       0.76250000
H        2.48290000      -1.72380000      -1.05560000
H        0.49490000      -0.31130000      -2.17810000
