19
Properties=species:S:1:pos:R:3 gdb_41555=T pbc="F F F"
C        0.00390000       1.57990000      -0.01870000
O        1.42580000       1.58140000      -0.27350000
C        1.41360000       0.14450000      -0.51540000
C        2.27870000      -0.75600000       0.34240000
C        2.29740000      -0.62910000       1.85860000
C        1.10650000       0.16690000       2.38050000
C        0.18460000      -0.64940000       1.40680000
C        1.38330000      -1.63440000       1.18910000
C       -0.02290000       0.04010000       0.04600000
H       -0.26170000       2.13840000       0.88570000
H       -0.55510000       1.99260000      -0.86920000
H        1.55270000      -0.06300000      -1.58370000
H        3.17200000      -1.19640000      -0.08640000
H        3.22150000      -0.81250000       2.39490000
H        0.88850000      -0.09970000       3.41840000
H        1.13640000       1.25440000       2.28970000
H       -0.72760000      -1.04490000       1.85290000
H        1.38050000      -2.71610000       1.20210000
H       -0.77390000      -0.46700000      -0.56390000
