19
Properties=species:S:1:pos:R:3 gdb_124463=T pbc="F F F"
C        0.43700000       1.48060000       0.24860000
C       -0.02970000       0.01680000       0.11770000
C        0.35980000      -0.77480000       1.38010000
N       -1.48930000       0.03700000      -0.12490000
H       -0.89060000      -0.16220000      -2.52470000
H       -1.86650000      -0.90180000      -0.01740000
H       -1.94090000       0.60760000       0.58450000
C        0.60410000      -0.60730000      -1.10220000
C        1.78380000      -1.27130000      -1.35970000
N        1.84370000      -1.57640000      -2.68720000
N        0.76280000      -1.14190000      -3.27190000
N        0.01640000      -0.55420000      -2.32080000
H        1.52390000       1.53210000       0.34660000
H        0.13950000       2.05790000      -0.63030000
H       -0.00850000       1.94460000       1.13620000
H       -0.10450000      -0.32330000       2.26300000
H        0.02700000      -1.81470000       1.30610000
H        1.44350000      -0.77880000       1.53540000
H        2.57910000      -1.54400000      -0.68520000
