14
Properties=species:S:1:pos:R:3 gdb_27126=T pbc="F F F"
N       -0.23370000       1.29830000       0.35690000
C       -0.06850000      -0.05990000       0.06530000
C       -1.02310000      -0.95550000      -0.30810000
O       -2.33350000      -0.78380000      -0.63410000
C       -3.25860000      -1.09370000       0.33610000
O       -4.42560000      -0.99780000       0.13970000
O       -0.51110000      -2.21320000      -0.43780000
C        0.80930000      -2.11300000      -0.13660000
C        1.13910000      -0.83400000       0.17910000
H        0.56600000       1.85570000       0.08590000
H       -1.07020000       1.68450000      -0.06310000
H       -2.77330000      -1.41980000       1.27270000
H        1.37150000      -3.03010000      -0.18720000
H        2.11430000      -0.47110000       0.46450000
