22
Properties=species:S:1:pos:R:3 gdb_108102=T pbc="F F F"
C        0.25400000       1.49470000      -0.16390000
C       -0.09700000       0.03050000       0.12860000
C        0.58400000      -0.51370000       1.35800000
C        0.32420000       0.02120000       2.76890000
C        1.39070000      -0.83230000       3.48730000
C        1.02690000      -2.25580000       3.01130000
C        1.02350000      -1.93130000       1.52250000
N        2.02970000      -0.86450000       1.25370000
C        2.60610000      -0.54970000       2.58420000
H        1.33620000       1.61140000      -0.27670000
H       -0.22320000       1.83470000      -1.08810000
H       -0.07610000       2.15860000       0.64190000
H       -1.18380000      -0.07850000       0.24310000
H        0.19040000      -0.58840000      -0.72850000
H        0.50750000       1.09630000       2.86220000
H       -0.69550000      -0.18860000       3.10910000
H        1.51140000      -0.68170000       4.55900000
H        1.77610000      -3.00500000       3.28690000
H        0.04840000      -2.59140000       3.37010000
H        0.89250000      -2.68490000       0.75460000
H        2.93890000       0.49250000       2.61070000
H        3.46340000      -1.19970000       2.78580000
