18
Properties=species:S:1:pos:R:3 gdb_57615=T pbc="F F F"
C       -0.07420000       1.70900000      -0.03160000
C        0.04140000       0.18680000      -0.01740000
O        0.75950000      -0.17650000       1.14360000
C       -1.36070000      -0.49670000      -0.00580000
C       -2.15840000      -0.14040000       1.16310000
N       -2.79900000       0.15170000       2.07910000
C        0.77800000      -0.31770000      -1.25730000
C        2.23660000      -0.44290000      -1.28140000
O        1.39820000      -1.59760000      -1.09070000
H        0.92270000       2.15550000      -0.01700000
H       -0.60220000       2.05540000      -0.92530000
H       -0.62060000       2.05200000       0.85040000
H        1.04140000      -1.09380000       1.01570000
H       -1.92130000      -0.22840000      -0.90870000
H       -1.22310000      -1.58380000      -0.02510000
H        0.25040000      -0.19300000      -2.20380000
H        2.76220000      -0.41150000      -2.23310000
H        2.80750000      -0.14340000      -0.40670000
