13
Properties=species:S:1:pos:R:3 gdb_11198=T pbc="F F F"
O       -0.11260000      -0.03600000       0.00140000
C       -0.03440000       1.17610000       0.01060000
C        1.20690000       1.91880000       0.00230000
C        1.31470000       3.26730000       0.01170000
N        2.63330000       3.66930000      -0.00040000
C        3.50790000       2.57030000      -0.01860000
O        4.70850000       2.64580000      -0.03280000
C        2.59720000       1.33610000      -0.01860000
H       -0.94840000       1.81320000       0.02600000
H        0.52080000       4.00260000       0.02660000
H        2.96230000       4.62150000       0.00300000
H        2.81730000       0.70790000       0.85070000
H        2.79720000       0.72240000      -0.90300000
