17
Properties=species:S:1:pos:R:3 gdb_5616=T pbc="F F F"
C        0.00060000       1.58150000      -0.11830000
C       -0.03040000       0.04840000       0.02590000
C       -1.41800000      -0.52390000       0.03570000
C       -2.11890000      -1.02370000       1.11460000
N       -3.36000000      -1.40470000       0.68820000
C       -3.48690000      -1.17110000      -0.66540000
C       -2.29820000      -0.62420000      -1.08560000
O       -2.04140000      -0.23630000      -2.37320000
H        1.02860000       1.95740000      -0.14970000
H       -0.50690000       1.90250000      -1.03410000
H       -0.51480000       2.05730000       0.72140000
H        0.55890000      -0.39950000      -0.78900000
H        0.48680000      -0.24090000       0.94750000
H       -1.82170000      -1.13450000       2.14550000
H       -4.07050000      -1.81300000       1.26720000
H       -4.38730000      -1.40500000      -1.20700000
H       -1.09980000      -0.05870000      -2.45280000
