15
Properties=species:S:1:pos:R:3 gdb_126484=T pbc="F F F"
C       -0.07070000       1.53820000       0.11810000
C        0.02560000       0.02290000      -0.04550000
C        0.73160000      -0.45450000      -1.28210000
N        1.19440000       0.42620000      -2.09760000
O        1.84720000      -0.07010000      -3.24080000
C        1.94810000      -1.39130000      -3.41290000
N        1.51950000      -2.32780000      -2.65700000
C        0.85460000      -1.93120000      -1.49210000
O        0.40070000      -2.71690000      -0.69240000
H        0.91970000       1.99910000       0.15820000
H       -0.61130000       1.99590000      -0.71450000
H       -0.59920000       1.77730000       1.04450000
H        0.53570000      -0.44040000       0.80870000
H       -0.96780000      -0.44340000      -0.04850000
H        2.47770000      -1.60120000      -4.34100000
