16
Properties=species:S:1:pos:R:3 gdb_123793=T pbc="F F F"
C       -0.37040000       1.08710000      -0.24110000
C        1.04890000       1.14130000       0.26560000
C        0.38140000      -0.18850000       0.06000000
N        0.00690000      -0.92590000       1.22990000
C       -1.02580000      -1.83580000       1.12810000
C       -2.04730000      -1.97160000       0.23640000
O       -2.80780000      -3.00740000       0.63970000
N       -2.22420000      -3.51600000       1.80210000
N       -1.19590000      -2.82720000       2.06950000
H       -1.15580000       1.36810000       0.45040000
H       -0.56050000       1.33300000      -1.27960000
H        1.83760000       1.42370000      -0.42180000
H        1.19850000       1.46270000       1.28970000
H        0.70200000      -0.77950000      -0.79980000
H        0.77530000      -1.27490000       1.78690000
H       -2.34680000      -1.45190000      -0.65520000
