14
Properties=species:S:1:pos:R:3 gdb_129657=T pbc="F F F"
N       -0.03580000       1.41130000       0.11470000
C       -0.01970000       0.02220000       0.03420000
C       -1.17240000      -0.70860000      -0.01220000
N       -2.43940000      -0.14730000      -0.04110000
C       -1.09810000      -2.15580000      -0.08860000
O       -2.06300000      -2.88350000      -0.15100000
O        0.15860000      -2.72290000      -0.08850000
N        1.33460000      -1.99400000      -0.00230000
C        1.20960000      -0.70940000       0.04970000
H        0.84390000       1.85840000      -0.10240000
H       -0.79750000       1.83450000      -0.40230000
H       -2.58140000       0.61220000       0.61320000
H       -3.15450000      -0.86210000       0.03310000
H        2.15860000      -0.18130000       0.10930000
