17
Properties=species:S:1:pos:R:3 gdb_49070=T pbc="F F F"
O       -0.75590000       1.08750000       0.65250000
C        0.21960000       0.86840000      -0.01970000
C        1.42460000       1.77590000      -0.08710000
C        1.78450000       2.49740000       1.20750000
C        2.43740000       3.79350000       0.70280000
O        1.74330000       4.11950000      -0.50560000
C        1.41150000       2.92630000      -1.15770000
C        2.55950000       2.12250000      -1.80880000
O        2.53910000       1.13910000      -0.74790000
H        0.30600000      -0.02740000      -0.67360000
H        0.85880000       2.70180000       1.75260000
H        2.44850000       1.89750000       1.83370000
H        2.32770000       4.64110000       1.38250000
H        3.50760000       3.63980000       0.50580000
H        0.52060000       3.09490000      -1.76380000
H        2.31770000       1.67530000      -2.78020000
H        3.51700000       2.65060000      -1.87530000
