17
Properties=species:S:1:pos:R:3 gdb_62170=T pbc="F F F"
C       -0.04640000       1.73950000      -0.09780000
C       -0.01620000       0.21620000      -0.09090000
C        0.44230000      -0.39610000      -1.41270000
O        1.69060000       0.14460000      -1.83620000
C        2.81560000      -0.54910000      -1.53500000
O        3.90210000      -0.14100000      -1.80350000
O        0.90210000      -0.24670000       0.91840000
C        0.40010000      -0.67900000       2.09330000
O        1.08900000      -1.06490000       2.98670000
H        0.94840000       2.13680000      -0.30830000
H       -0.73670000       2.10260000      -0.86530000
H       -0.37950000       2.11820000       0.87200000
H       -1.01660000      -0.18510000       0.12610000
H        0.50910000      -1.48590000      -1.31040000
H       -0.28100000      -0.16340000      -2.19900000
H        2.60430000      -1.51450000      -1.04040000
H       -0.70680000      -0.64070000       2.12550000
