15
Properties=species:S:1:pos:R:3 gdb_48263=T pbc="F F F"
O       -0.29560000      -0.17580000      -0.02610000
C       -0.24080000       1.03150000      -0.07120000
N        0.91720000       1.76540000      -0.05840000
C        0.90670000       3.22360000      -0.06210000
C        1.36530000       3.80330000       1.20100000
C        1.76160000       4.26360000       2.23730000
C        2.18710000       1.07040000       0.06340000
C        3.05560000       1.29850000      -1.09940000
N        3.73640000       1.50580000      -2.00930000
H       -1.13440000       1.68020000      -0.13250000
H        1.53130000       3.59090000      -0.88690000
H       -0.11780000       3.54660000      -0.27660000
H        2.10260000       4.68020000       3.15340000
H        2.71640000       1.39320000       0.96790000
H        1.95550000       0.00530000       0.15320000
