19
Properties=species:S:1:pos:R:3 gdb_20072=T pbc="F F F"
C        0.29540000       1.47950000       0.25190000
N        1.29910000       0.41500000       0.04450000
C       -0.13070000       0.07280000       0.07130000
C       -0.58830000      -0.78830000       1.23510000
C       -0.04360000      -2.23700000       1.16140000
C        0.40640000      -2.52060000       2.60390000
C        0.81320000      -1.12230000       3.07000000
O       -0.14720000      -0.24830000       2.48280000
H        0.29380000       1.89790000       1.25210000
H        0.10840000       2.18440000      -0.55410000
H        1.63590000       0.43880000      -0.91410000
H       -0.60740000      -0.18420000      -0.87470000
H       -1.68760000      -0.78120000       1.25210000
H       -0.79190000      -2.94370000       0.79520000
H        0.81680000      -2.26990000       0.48620000
H       -0.42970000      -2.88950000       3.20730000
H        1.22010000      -3.24780000       2.66570000
H        0.76870000      -0.98540000       4.15460000
H        1.82420000      -0.86950000       2.72100000
