15
Properties=species:S:1:pos:R:3 gdb_127473=T pbc="F F F"
C       -0.01620000       1.38290000      -0.05850000
N       -0.00090000      -0.06510000      -0.02110000
N        0.00810000      -0.78740000      -1.15480000
C        0.01310000      -2.04600000      -0.71280000
N       -0.04290000      -3.11580000      -1.57950000
C        0.01220000      -2.02880000       0.70860000
C        0.00840000      -3.15160000       1.63790000
O        0.01970000      -3.07730000       2.84510000
N        0.00640000      -0.73640000       1.09820000
H        0.86420000       1.74830000      -0.59250000
H       -0.91570000       1.73010000      -0.57260000
H       -0.00850000       1.73570000       0.97120000
H        0.19830000      -2.87680000      -2.53090000
H        0.41560000      -3.95690000      -1.26440000
H       -0.01030000      -4.14400000       1.12880000
