18
Properties=species:S:1:pos:R:3 gdb_26847=T pbc="F F F"
C        0.08240000       1.52780000      -0.07600000
C       -0.05060000       0.03210000      -0.04290000
C       -1.23220000      -0.65650000       0.06220000
C       -2.57560000       0.02900000       0.15960000
C       -1.14680000      -2.08250000       0.07670000
C        0.02990000      -2.76190000      -0.00740000
C        1.29140000      -2.06270000      -0.11910000
O        2.41060000      -2.54490000      -0.20160000
N        1.12420000      -0.66400000      -0.12670000
H        0.70310000       1.88330000       0.75520000
H        0.56230000       1.85680000      -1.00550000
H       -0.88810000       2.01740000      -0.00580000
H       -2.79560000       0.64830000      -0.71750000
H       -3.37300000      -0.71490000       0.23470000
H       -2.65450000       0.67470000       1.04170000
H       -2.07470000      -2.64320000       0.15950000
H        0.07300000      -3.84370000       0.00530000
H        1.99580000      -0.15640000      -0.20420000
