19
Properties=species:S:1:pos:R:3 gdb_61547=T pbc="F F F"
O       -0.17890000       1.34750000      -0.10260000
C        0.00780000      -0.04090000       0.01240000
C        0.63480000      -0.63870000      -1.26490000
C       -0.06170000      -0.10260000      -2.51000000
O       -1.45720000      -0.01240000      -2.39380000
C        0.62610000       0.91730000      -3.37810000
C        0.43590000      -0.50710000      -3.86440000
C        0.84580000      -0.35930000       1.22730000
O        1.26180000       0.50890000       1.95780000
H        0.26670000       1.74050000       0.66480000
H       -0.96740000      -0.53800000       0.15670000
H        1.70380000      -0.40210000      -1.31320000
H        0.53820000      -1.73080000      -1.21290000
H       -1.63460000       0.76950000      -1.85480000
H       -0.00190000       1.68070000      -3.82310000
H        1.62300000       1.24750000      -3.10720000
H        1.30320000      -1.15610000      -3.92510000
H       -0.31910000      -0.68080000      -4.62210000
H        1.06190000      -1.43100000       1.41170000
