21
Properties=species:S:1:pos:R:3 gdb_104223=T pbc="F F F"
C       -0.00190000       1.41170000       0.22660000
O       -0.08440000       0.01580000       0.41950000
C       -1.30610000      -0.58820000       0.04680000
C       -2.48920000      -0.10700000       0.88470000
C       -1.60450000      -0.67610000      -1.49170000
C       -1.84670000      -2.20910000      -1.34270000
C       -1.18670000      -2.11860000       0.03240000
C       -0.11340000      -2.92090000       0.61140000
O       -1.45150000      -2.95470000       1.14070000
H        1.03570000       1.69560000       0.41900000
H       -0.25810000       1.69990000      -0.80370000
H       -0.64860000       1.97310000       0.91480000
H       -2.70270000       0.95170000       0.71000000
H       -3.39110000      -0.67300000       0.63430000
H       -2.27980000      -0.25900000       1.94700000
H       -2.43760000      -0.08030000      -1.86940000
H       -0.70620000      -0.45790000      -2.07310000
H       -2.90710000      -2.46600000      -1.27050000
H       -1.37610000      -2.86340000      -2.07900000
H        0.20920000      -3.83220000       0.10880000
H        0.62680000      -2.43950000       1.24610000
