16
Properties=species:S:1:pos:R:3 gdb_14083=T pbc="F F F"
C       -0.13880000       1.41730000      -0.09160000
N        0.07630000      -0.02200000      -0.01500000
C        1.44550000      -0.49920000      -0.16090000
C        0.75840000      -0.52640000       1.15640000
C        1.12770000       0.16570000       2.47240000
O        0.70180000      -1.03440000       3.18890000
C        0.33180000      -1.67860000       2.01530000
N       -0.15340000      -2.81530000       1.82020000
H        0.69310000       2.01360000       0.31890000
H       -0.27340000       1.69590000      -1.14060000
H       -1.05320000       1.67680000       0.45030000
H        1.57050000      -1.42100000      -0.72140000
H        2.24020000       0.23770000      -0.28110000
H        2.18660000       0.37220000       2.64680000
H        0.51720000       1.02840000       2.75350000
H       -0.29570000      -3.31980000       2.69630000
