23
Properties=species:S:1:pos:R:3 gdb_115585=T pbc="F F F"
C       -0.12650000       1.58900000      -0.35550000
C       -0.07870000       0.08020000      -0.08680000
C       -1.46090000      -0.54750000       0.13920000
C       -2.18310000       0.02410000       1.35310000
O       -2.28060000      -0.39590000      -1.06030000
C       -2.28330000      -1.81630000      -1.30760000
C       -1.54610000      -2.10240000       0.01200000
C       -0.29540000      -2.95770000      -0.04180000
O       -0.72730000      -4.29460000      -0.26500000
H        0.85910000       1.95800000      -0.65450000
H       -0.83120000       1.80480000      -1.16360000
H       -0.43490000       2.15640000       0.52730000
H        0.38720000      -0.41040000      -0.94780000
H        0.55900000      -0.13200000       0.78140000
H       -2.34810000       1.09930000       1.24330000
H       -3.15880000      -0.45430000       1.47290000
H       -1.60000000      -0.14330000       2.26590000
H       -3.29890000      -2.21560000      -1.40210000
H       -1.71660000      -2.07920000      -2.21160000
H       -2.20770000      -2.52780000       0.77160000
H        0.37200000      -2.62340000      -0.84990000
H        0.26330000      -2.87140000       0.90450000
H        0.05130000      -4.84950000      -0.36820000
