17
Properties=species:S:1:pos:R:3 gdb_113530=T pbc="F F F"
O        0.00180000       1.36640000      -0.52880000
C        0.01650000       0.17320000       0.23350000
C       -1.34680000      -0.46990000       0.27020000
O       -1.72960000      -1.17010000      -0.92300000
C       -1.52910000      -1.93400000       0.24950000
C       -0.52970000      -3.09060000       0.44470000
C       -1.57300000      -3.81640000       1.35200000
C       -2.60750000      -2.72880000       0.98170000
O       -3.77860000      -2.57910000       1.16400000
H       -0.28270000       1.13070000      -1.41910000
H        0.75250000      -0.54800000      -0.15080000
H        0.31900000       0.46020000       1.24660000
H       -2.14690000       0.13500000       0.69830000
H       -0.32700000      -3.62030000      -0.48850000
H        0.41680000      -2.83090000       0.92080000
H       -1.85730000      -4.82830000       1.05450000
H       -1.33070000      -3.82130000       2.41840000
