9
Properties=species:S:1:pos:R:3 gdb_3818=T pbc="F F F"
N        0.02150000      -1.15560000      -0.00390000
C       -0.00310000       0.00150000       0.00280000
C       -0.01770000       1.41570000       0.01080000
C       -1.09620000       2.25490000       0.02970000
O       -0.69400000       3.52130000       0.03120000
N        0.70250000       3.56580000       0.01300000
C        1.09050000       2.32030000       0.00130000
H       -2.16060000       2.08020000       0.04280000
H        2.14430000       2.08430000      -0.01390000
