15
Properties=species:S:1:pos:R:3 gdb_66695=T pbc="F F F"
C        0.02640000       1.53690000       0.05030000
C        0.04280000       0.04580000      -0.00640000
C        0.44220000      -0.86100000      -1.23780000
C        0.90060000      -1.91540000      -0.31650000
C        0.49760000      -1.02060000       0.90910000
N       -0.95360000      -0.76570000       0.73750000
C       -1.43440000      -1.77460000      -0.18430000
O       -2.52430000      -2.24380000      -0.20490000
N       -0.34680000      -2.10400000      -1.08920000
H        0.99690000       1.94380000      -0.25300000
H       -0.73690000       1.94420000      -0.62170000
H       -0.19260000       1.87880000       1.06450000
H        0.76580000      -0.55260000      -2.22220000
H        1.68210000      -2.65840000      -0.38260000
H        0.92040000      -1.00890000       1.90400000
