15
Properties=species:S:1:pos:R:3 gdb_48904=T pbc="F F F"
O       -0.19710000       0.35440000      -0.70780000
C        0.13630000       1.10310000       0.17920000
C        1.38330000       1.89500000       0.17900000
C        1.91320000       2.87610000       1.23240000
C        2.83410000       3.42520000       0.10660000
C        1.86480000       2.77120000      -0.95970000
C        2.56850000       1.44550000      -0.71410000
C        3.75310000       2.21920000      -0.20770000
O        4.93780000       2.05980000      -0.23360000
H       -0.50630000       1.26480000       1.07380000
H        1.14260000       3.59670000       1.51980000
H        2.40400000       2.47640000       2.12600000
H        3.21920000       4.44060000       0.11020000
H        1.36830000       3.12590000      -1.84940000
H        2.49370000       0.53120000      -1.28490000
