18
Properties=species:S:1:pos:R:3 gdb_87419=T pbc="F F F"
C       -0.08010000       1.53210000      -0.08080000
C       -0.07040000       0.03530000       0.09050000
O        1.21680000      -0.62100000      -0.00570000
C        0.54130000      -0.63290000       1.23790000
C        1.21580000      -0.17500000       2.49920000
C        0.43930000      -0.75020000       3.64340000
C       -0.73430000      -1.55160000       3.10020000
C        0.25520000      -1.93220000       1.98090000
N        1.45510000      -1.60160000       2.94350000
H        0.71870000       1.99800000       0.50180000
H        0.06130000       1.80060000      -1.13280000
H       -1.03940000       1.94770000       0.24640000
H       -0.86280000      -0.49940000      -0.43770000
H        1.97460000       0.58820000       2.62160000
H        0.60150000      -0.41180000       4.66110000
H       -0.95440000      -2.40160000       3.75080000
H       -1.66310000      -1.04220000       2.82290000
H        0.22500000      -2.88420000       1.45580000
