17
Properties=species:S:1:pos:R:3 gdb_65494=T pbc="F F F"
O        0.26330000       1.52880000      -0.41830000
C       -0.01780000       0.21710000       0.02820000
C        0.11330000      -0.03960000       1.57790000
C       -1.29940000      -0.62010000       1.53760000
C       -1.79530000      -1.87330000       2.10430000
O       -2.21580000      -0.59530000       2.61070000
C       -1.55580000      -0.02280000       0.15510000
C        0.67640000      -0.78590000      -0.77200000
C        1.28430000      -1.59140000      -1.42620000
H        1.21070000       1.59170000      -0.58300000
H        0.92960000      -0.67730000       1.92070000
H        0.13660000       0.92130000       2.09920000
H       -2.56200000      -2.44080000       1.57840000
H       -1.16180000      -2.45390000       2.77390000
H       -2.06070000       0.94460000       0.22300000
H       -2.03230000      -0.64190000      -0.60560000
H        1.80990000      -2.30530000      -2.01130000
