24
Properties=species:S:1:pos:R:3 gdb_10226=T pbc="F F F"
C        1.08930000       1.00210000       0.68270000
C        0.64280000      -0.45980000       0.59400000
C       -0.87900000      -0.61560000       0.51710000
C       -1.35730000      -2.06760000       0.40460000
C       -2.88740000      -2.16450000       0.38800000
C       -3.41370000      -3.59930000       0.31620000
O       -0.84180000      -2.63990000      -0.80210000
C        0.01400000      -3.74580000      -0.62880000
H        2.17970000       1.08490000       0.73170000
H        0.75140000       1.57170000      -0.19030000
H        0.67840000       1.49120000       1.57340000
H        1.08970000      -0.92780000      -0.29010000
H        1.02280000      -1.01120000       1.46490000
H       -1.34270000      -0.16200000       1.40330000
H       -1.25920000      -0.06260000      -0.35220000
H       -0.97380000      -2.63810000       1.26580000
H       -3.27710000      -1.66540000       1.28400000
H       -3.25420000      -1.59330000      -0.47400000
H       -4.50760000      -3.61720000       0.28760000
H       -3.04580000      -4.09980000      -0.58370000
H       -3.09590000      -4.18630000       1.18570000
H        0.32310000      -4.07230000      -1.62600000
H        0.91490000      -3.48910000      -0.05160000
H       -0.48820000      -4.58630000      -0.12690000
