16
Properties=species:S:1:pos:R:3 gdb_43999=T pbc="F F F"
N       -0.08080000       1.15240000      -0.55480000
C       -0.00920000       0.03310000       0.00220000
O        1.14980000      -0.63960000       0.36880000
C        0.77990000      -1.84350000       0.98740000
C        0.02560000      -1.77890000       2.28960000
C       -0.71860000      -1.86510000       0.98410000
C       -0.73760000      -3.24600000       0.31090000
C        0.83800000      -3.22360000       0.31270000
O       -1.12920000      -0.67720000       0.36470000
H        0.84940000       1.52190000      -0.73370000
H        0.03660000      -2.63120000       2.96210000
H        0.01000000      -0.80800000       2.77030000
H       -1.23480000      -4.04290000       0.86910000
H       -1.15400000      -3.20050000      -0.69600000
H        1.25530000      -3.16710000      -0.69340000
H        1.35680000      -4.00620000       0.87170000
