20
Properties=species:S:1:pos:R:3 gdb_83204=T pbc="F F F"
C        0.11820000       1.66620000      -0.26920000
C        0.03950000       0.15860000      -0.14300000
C        0.57420000      -0.82190000      -1.12890000
C        1.61350000      -0.37900000      -2.15260000
C        2.76540000       0.24190000      -1.32940000
C        2.53070000      -0.28380000       0.12220000
C        2.90400000       0.66620000       1.16480000
C        3.23930000       1.44850000       2.01370000
N        1.13280000      -0.76270000       0.23850000
H        0.86270000       2.01670000      -0.98450000
H       -0.85600000       2.04000000      -0.60310000
H        0.33880000       2.12730000       0.69770000
H       -0.87500000      -0.15030000       0.36250000
H       -0.00880000      -1.70780000      -1.37020000
H        1.95940000      -1.25560000      -2.70920000
H        1.20930000       0.32510000      -2.88730000
H        3.74880000      -0.06060000      -1.69780000
H        2.74110000       1.33180000      -1.34900000
H        3.14090000      -1.18580000       0.26150000
H        3.52990000       2.13480000       2.77000000
