16
Properties=species:S:1:pos:R:3 gdb_54240=T pbc="F F F"
N       -0.11600000       1.40470000      -0.14360000
C        0.08530000       0.08530000       0.07930000
O        1.16610000      -0.42690000       0.30010000
C       -1.20510000      -0.75210000       0.05110000
O       -2.30430000      -0.03920000      -0.46750000
C       -0.96200000      -2.19910000      -0.49770000
N       -1.10780000      -2.66720000       0.89350000
C       -1.53260000      -1.45580000       1.37910000
N       -2.11380000      -0.97050000       2.39330000
H        0.67910000       2.02030000      -0.17040000
H       -1.02910000       1.72610000      -0.41590000
H       -2.93360000       0.04950000       0.26170000
H       -1.76440000      -2.51820000      -1.16940000
H        0.02450000      -2.38120000      -0.92500000
H       -1.32650000      -3.59230000       1.23190000
H       -2.34050000      -1.67500000       3.09580000
