19
Properties=species:S:1:pos:R:3 gdb_7186=T pbc="F F F"
C       -0.18940000       1.36080000      -0.22230000
O       -0.09800000      -0.03930000      -0.09330000
C        0.71330000      -0.64060000      -1.08490000
C        0.70100000      -2.15000000      -0.85240000
C        1.38930000      -2.54570000       0.46100000
N       -0.68110000      -2.61350000      -0.89900000
C       -1.05620000      -3.77720000      -1.48480000
O       -0.30800000      -4.55090000      -2.04770000
H        0.79620000       1.84150000      -0.12650000
H       -0.62160000       1.65310000      -1.19190000
H       -0.83830000       1.72220000       0.57900000
H        0.32150000      -0.40840000      -2.08820000
H        1.74470000      -0.25710000      -1.02680000
H        1.21380000      -2.63540000      -1.68750000
H        0.90070000      -2.06560000       1.31290000
H        1.34870000      -3.62960000       0.59250000
H        2.44070000      -2.23980000       0.45120000
H       -1.36790000      -2.04320000      -0.43020000
H       -2.14830000      -3.94840000      -1.39920000
