17
Properties=species:S:1:pos:R:3 gdb_14403=T pbc="F F F"
C        0.04700000       1.50040000      -0.10700000
C       -0.04180000       0.00900000      -0.04550000
O        0.44250000      -0.72410000      -1.17540000
C       -0.23690000      -1.86910000      -0.58350000
C        0.67390000      -2.16060000       0.62060000
C        0.34320000      -0.80920000       1.29300000
N       -1.11870000      -0.88290000       1.57280000
C       -1.28750000      -0.88430000       0.11810000
H        1.09330000       1.82390000      -0.12170000
H       -0.44230000       1.88210000      -1.00790000
H       -0.43780000       1.93590000       0.77100000
H       -0.49460000      -2.64850000      -1.29800000
H        0.37710000      -3.01220000       1.24080000
H        1.71090000      -2.27630000       0.29880000
H        0.98900000      -0.41730000       2.07790000
H       -1.40590000      -1.73840000       2.04820000
H       -2.26760000      -0.71950000      -0.32820000
