13
Properties=species:S:1:pos:R:3 gdb_16257=T pbc="F F F"
N        0.01260000       1.22620000       0.01480000
C       -0.01960000      -0.02130000       0.06080000
O        1.01090000      -0.95560000       0.19900000
C        0.07930000      -2.03910000      -0.01760000
C       -0.90890000      -2.06880000       1.08080000
C       -1.09630000      -1.06230000      -0.08120000
C       -2.25830000      -1.00580000      -0.89220000
C       -3.24610000      -0.95730000      -1.57600000
H        0.96440000       1.58100000       0.11870000
H        0.37560000      -2.83350000      -0.68780000
H       -1.63300000      -2.87640000       1.05860000
H       -0.62940000      -1.70600000       2.06460000
H       -4.11460000      -0.90460000      -2.18460000
