19
Properties=species:S:1:pos:R:3 gdb_95469=T pbc="F F F"
O        0.32030000       1.41420000       0.16050000
C        0.14870000       0.02060000      -0.00840000
C       -1.32560000      -0.45570000      -0.04030000
C       -1.34320000      -1.67360000      -0.99410000
C       -0.09920000      -1.46450000      -1.82410000
C        0.71260000      -0.54240000      -1.30550000
C        2.02650000      -0.08520000      -1.86130000
C        2.00110000       1.27390000      -2.53730000
O        1.08140000       2.05460000      -2.52060000
H        0.15880000       1.82970000      -0.69850000
H        0.67980000      -0.42880000       0.84460000
H       -1.72190000      -0.67340000       0.95420000
H       -1.92360000       0.35880000      -0.46270000
H       -1.28290000      -2.62110000      -0.44030000
H       -2.25340000      -1.73310000      -1.60130000
H        0.10720000      -2.03740000      -2.72330000
H        2.79570000      -0.01190000      -1.07550000
H        2.42580000      -0.79710000      -2.59630000
H        2.93770000       1.52290000      -3.08330000
