15
Properties=species:S:1:pos:R:3 gdb_129690=T pbc="F F F"
N       -0.56260000       1.23790000       0.35990000
C       -0.20560000      -0.09590000       0.09310000
C       -1.04220000      -1.10980000      -0.32950000
N       -0.29860000      -2.24780000      -0.39650000
N        0.98000000      -2.04390000      -0.04560000
C        1.03980000      -0.74730000       0.25910000
O       -2.35250000      -1.09850000      -0.70750000
C       -3.27360000      -0.89680000       0.28850000
N       -4.48700000      -0.79590000      -0.02000000
H        0.24810000       1.84200000       0.40530000
H       -1.20150000       1.60840000      -0.33460000
H       -0.60130000      -3.15050000      -0.72170000
H        1.97440000      -0.31490000       0.58700000
H       -2.81310000      -0.84640000       1.28090000
H       -5.05030000      -0.65810000       0.81650000
