18
Properties=species:S:1:pos:R:3 gdb_91246=T pbc="F F F"
O        0.18990000       1.09530000       0.59940000
C       -0.15950000      -0.12730000      -0.02170000
C       -1.62940000      -0.07740000      -0.46470000
C       -1.69300000      -1.05080000      -1.65400000
N       -0.28490000      -1.26250000      -2.15890000
C       -0.30110000      -2.70920000      -1.79220000
C       -1.75630000      -2.55100000      -1.32440000
O       -2.58470000      -3.27870000      -0.86530000
C        0.58720000      -0.40690000      -1.35020000
H        1.08410000       1.01520000       0.94530000
H       -0.01160000      -0.96710000       0.67550000
H       -2.32980000      -0.34390000       0.32990000
H       -1.85590000       0.94310000      -0.78920000
H       -2.40420000      -0.73440000      -2.42380000
H       -0.15200000      -3.38100000      -2.64490000
H        0.39060000      -3.00660000      -0.99160000
H        0.74250000       0.55390000      -1.85730000
H        1.56690000      -0.87590000      -1.21410000
