21
Properties=species:S:1:pos:R:3 gdb_116358=T pbc="F F F"
C        0.06210000       1.40590000       0.02450000
O       -0.07180000       0.00460000      -0.06380000
C        0.61260000      -0.58750000      -1.16100000
C        2.10950000      -0.75290000      -0.85290000
O        2.74510000      -1.53610000      -1.84170000
C        2.27030000      -2.86970000      -1.85740000
C        0.77540000      -2.97230000      -1.74930000
C       -0.01080000      -1.94080000      -1.43870000
C       -1.50890000      -2.03280000      -1.36510000
H        1.09170000       1.72270000       0.24440000
H       -0.25960000       1.90220000      -0.90430000
H       -0.58240000       1.73790000       0.84240000
H        0.49210000       0.05620000      -2.05060000
H        2.62680000       0.21030000      -0.84590000
H        2.20510000      -1.20460000       0.14770000
H        2.61740000      -3.30460000      -2.80250000
H        2.74490000      -3.45450000      -1.04700000
H        0.34660000      -3.95340000      -1.94240000
H       -1.85400000      -3.04230000      -1.60320000
H       -1.86910000      -1.75750000      -0.36960000
H       -1.98000000      -1.33510000      -2.06980000
