16
Properties=species:S:1:pos:R:3 gdb_48896=T pbc="F F F"
O        0.01710000      -0.04720000      -0.20950000
C        0.07640000       1.12270000       0.07000000
C        1.30360000       1.95540000       0.05090000
C        1.70840000       2.82470000       1.26010000
C        2.70410000       3.67150000       0.43170000
N        1.85440000       4.37700000      -0.56230000
C        1.59550000       3.07040000      -1.13170000
C        2.98840000       2.58290000      -0.71630000
O        2.55240000       1.30440000      -0.27250000
H       -0.83200000       1.70630000       0.35250000
H        0.90610000       3.43340000       1.68720000
H        2.16390000       2.20440000       2.03450000
H        3.47640000       4.24570000       0.94000000
H        1.05580000       4.87970000      -0.17750000
H        1.11140000       2.95250000      -2.09910000
H        3.89960000       2.60750000      -1.30840000
