25
Properties=species:S:1:pos:R:3 gdb_116169=T pbc="F F F"
C        0.05570000       1.37980000      -0.10560000
O       -0.01140000      -0.00410000       0.14020000
C       -1.31530000      -0.56360000       0.06270000
C       -1.80940000      -0.71800000      -1.38260000
C       -3.16400000      -1.44070000      -1.43020000
C       -3.10300000      -2.79680000      -0.71510000
C       -2.60610000      -2.65900000       0.73370000
C       -2.51630000      -4.01710000       1.43630000
C       -1.25790000      -1.91990000       0.76670000
H        1.08510000       1.69210000       0.08990000
H       -0.19310000       1.64340000      -1.14410000
H       -0.61610000       1.94490000       0.56070000
H       -2.01890000       0.09220000       0.60800000
H       -1.88870000       0.26010000      -1.86920000
H       -1.05660000      -1.29220000      -1.93860000
H       -3.92810000      -0.81270000      -0.95110000
H       -3.48240000      -1.57170000      -2.47040000
H       -4.08880000      -3.27720000      -0.72750000
H       -2.42380000      -3.46670000      -1.26220000
H       -3.33970000      -2.04430000       1.27800000
H       -1.79800000      -4.67290000       0.92980000
H       -2.18940000      -3.90770000       2.47570000
H       -3.48570000      -4.52700000       1.44070000
H       -0.49020000      -2.53010000       0.27110000
H       -0.92250000      -1.77210000       1.79930000
