16
Properties=species:S:1:pos:R:3 gdb_49048=T pbc="F F F"
O       -0.69690000       0.74460000      -0.70890000
C        0.14200000       0.90640000       0.14250000
C        1.29960000       1.83690000       0.01390000
C        1.39660000       3.08470000       0.96210000
C        1.64030000       3.99060000      -0.28350000
C        1.58190000       2.74720000      -1.21660000
N        2.84990000       2.02950000      -1.37720000
C        2.72010000       1.24430000      -0.25290000
O        3.44660000       0.46960000       0.30330000
H        0.09970000       0.35820000       1.10990000
H        0.45740000       3.30030000       1.47590000
H        2.19560000       3.03460000       1.70380000
H        0.82330000       4.69230000      -0.46420000
H        2.58490000       4.53770000      -0.30500000
H        0.94600000       2.76770000      -2.09970000
H        3.69770000       2.30080000      -1.85760000
