19
Properties=species:S:1:pos:R:3 gdb_40255=T pbc="F F F"
C        0.02870000       1.49720000       0.01890000
O        1.19270000       0.66680000      -0.03870000
C       -0.10370000       0.03570000       0.02250000
C       -0.36450000      -0.72510000       1.30930000
C        0.02900000      -2.19000000       1.11080000
O       -0.79070000      -2.79760000       0.11880000
C       -0.73820000      -2.18600000      -1.13970000
C       -1.85780000      -1.24500000      -1.49030000
C       -0.46380000      -0.70250000      -1.23260000
H       -0.10270000       2.05500000       0.94630000
H       -0.19250000       2.05680000      -0.88970000
H        0.21720000      -0.26760000       2.11510000
H       -1.42520000      -0.67850000       1.58260000
H        1.09240000      -2.25960000       0.83670000
H       -0.12930000      -2.77280000       2.02190000
H       -0.33460000      -2.83750000      -1.91150000
H       -2.22800000      -1.21670000      -2.50910000
H       -2.61420000      -1.10300000      -0.72640000
H        0.09160000      -0.35820000      -2.09870000
