16
Properties=species:S:1:pos:R:3 gdb_60723=T pbc="F F F"
C       -0.40250000       1.44320000       0.01940000
N       -0.06460000       0.01660000       0.00150000
C        0.26280000      -0.59760000       1.20960000
O        0.23410000      -0.03090000       2.27570000
C       -0.07400000      -0.72940000      -1.17240000
N       -0.10550000      -2.00690000      -1.14680000
C        0.04340000       0.07120000      -2.47200000
N       -0.77600000      -0.38090000      -3.46200000
O        0.84170000       0.97410000      -2.61240000
H        0.40330000       2.04180000      -0.40600000
H       -1.31920000       1.62330000      -0.54780000
H       -0.56220000       1.71230000       1.06260000
H        0.55520000      -1.64600000       1.06960000
H       -0.01950000      -2.38590000      -2.08800000
H       -1.52470000      -1.02490000      -3.27230000
H       -0.75500000       0.09550000      -4.34950000
