15
Properties=species:S:1:pos:R:3 gdb_20863=T pbc="F F F"
C        0.06200000       1.51990000       0.12180000
C       -0.08690000       0.00140000      -0.08130000
C        0.70340000      -0.51680000      -1.24070000
N        0.16690000      -0.83800000      -2.38530000
O        1.18210000      -1.26030000      -3.18900000
N        2.39630000      -1.19380000      -2.53660000
C        2.11740000      -0.74790000      -1.33970000
N        3.05750000      -0.62450000      -0.33420000
H        1.10470000       1.81040000       0.29230000
H       -0.29210000       2.06460000      -0.75760000
H       -0.51870000       1.84910000       0.98800000
H        0.22980000      -0.52700000       0.82610000
H       -1.13860000      -0.24690000      -0.24690000
H        4.00930000      -0.69150000      -0.66890000
H        2.92760000       0.17540000       0.26810000
