23
Properties=species:S:1:pos:R:3 gdb_109995=T pbc="F F F"
C        0.37810000       1.84230000      -0.20540000
C        0.37950000       0.32880000       0.04350000
C        0.74940000      -0.47570000      -1.19930000
C        0.80000000      -2.03980000      -1.16700000
C        0.00910000      -2.73330000      -0.06040000
C        0.11380000      -2.05670000      -2.56430000
C       -0.23650000      -0.54640000      -2.43580000
C       -1.67850000      -0.25810000      -2.10680000
O       -2.23200000       0.79030000      -2.32990000
H        1.36300000       2.18430000      -0.54330000
H       -0.35400000       2.11700000      -0.97030000
H        0.13090000       2.39070000       0.70870000
H        1.09920000       0.08800000       0.83730000
H       -0.60120000       0.01950000       0.42440000
H        1.70680000      -0.10030000      -1.57750000
H        1.82070000      -2.43460000      -1.16540000
H       -1.03650000      -2.40800000      -0.02930000
H        0.00710000      -3.81720000      -0.21900000
H        0.44430000      -2.54130000       0.92570000
H        0.80270000      -2.25330000      -3.38830000
H       -0.74060000      -2.73450000      -2.66470000
H        0.04460000       0.10090000      -3.26910000
H       -2.23560000      -1.09500000      -1.62250000
