18
Properties=species:S:1:pos:R:3 gdb_90113=T pbc="F F F"
C       -0.11610000       1.66120000       0.07840000
N       -0.04730000       0.21330000       0.01880000
C       -1.23340000      -0.57820000       0.57970000
C       -0.15890000      -1.64720000       0.90490000
O        0.60610000      -2.31010000       2.02000000
C        1.76310000      -1.75100000       1.23700000
C        1.65740000      -2.51060000      -0.07320000
C        0.34700000      -2.43090000      -0.30840000
C        0.78080000      -0.49680000       1.03220000
H        0.82400000       2.08410000      -0.28920000
H       -0.92230000       2.02060000      -0.56950000
H       -0.29580000       2.04630000       1.09890000
H       -1.67390000      -0.09650000       1.46250000
H       -2.00360000      -0.82160000      -0.15850000
H        2.68720000      -1.71870000       1.81380000
H        2.46290000      -2.96240000      -0.63180000
H       -0.25850000      -2.79740000      -1.12410000
H        0.70310000       0.00910000       2.00560000
