15
Properties=species:S:1:pos:R:3 gdb_128612=T pbc="F F F"
C        0.01360000       1.35240000       0.11060000
O        0.06370000      -0.06090000       0.02180000
C        0.60940000      -0.59710000      -1.08430000
C        1.11840000       0.09660000      -2.12680000
O        1.66690000      -0.46960000      -3.23820000
N        1.73110000      -1.83850000      -3.35640000
C        1.25600000      -2.53280000      -2.38290000
C        0.64340000      -2.05420000      -1.14030000
N        0.18270000      -2.79130000      -0.19570000
H        1.02030000       1.79010000       0.08640000
H       -0.58570000       1.78280000      -0.70260000
H       -0.45740000       1.57970000       1.06720000
H        1.15250000       1.17340000      -2.20590000
H        1.33620000      -3.60730000      -2.53640000
H        0.30260000      -3.77960000      -0.43070000
