15
Properties=species:S:1:pos:R:3 gdb_68951=T pbc="F F F"
C        0.22120000       1.43310000       0.12380000
C       -0.01320000      -0.03910000       0.09410000
O        1.02640000      -0.90310000      -0.34010000
C        0.53470000      -1.12480000       0.98940000
C        1.41670000      -0.92010000       2.15830000
O        2.47110000      -0.33560000       2.12440000
C       -0.79150000      -1.87100000       0.88470000
O       -1.82860000      -0.98830000       1.34020000
C       -1.32910000      -0.81970000       0.00660000
H        1.21370000       1.64150000       0.53040000
H        0.16570000       1.84950000      -0.88770000
H       -0.53630000       1.92420000       0.74100000
H        1.00090000      -1.33340000       3.10270000
H       -0.98870000      -2.93510000       0.88830000
H       -2.03290000      -0.89490000      -0.81280000
