23
Properties=species:S:1:pos:R:3 gdb_92084=T pbc="F F F"
C       -0.17330000       1.63250000      -0.06280000
C       -0.00880000       0.10390000      -0.01220000
C        0.68330000      -0.45230000      -1.27770000
C        2.19120000      -0.33480000      -1.26890000
O        2.75540000       0.94220000      -0.95330000
C        2.92940000      -0.12770000      -0.01090000
C        2.19490000       0.00800000       1.31080000
C        0.71750000      -0.43020000       1.24670000
C       -0.01040000      -0.09860000       2.55360000
H        0.79040000       2.14080000      -0.12570000
H       -0.75230000       1.91600000      -0.94840000
H       -0.71490000       2.00760000       0.81070000
H       -1.01900000      -0.32700000       0.00610000
H        0.44650000      -1.52020000      -1.38190000
H        0.28610000       0.03980000      -2.17450000
H        2.70040000      -0.84750000      -2.08710000
H        3.95950000      -0.48060000       0.04630000
H        2.71130000      -0.59300000       2.06840000
H        2.27290000       1.05080000       1.64340000
H        0.71980000      -1.52590000       1.14380000
H       -0.01170000       0.97800000       2.75250000
H       -1.05250000      -0.43520000       2.52480000
H        0.47450000      -0.58800000       3.40540000
