22
Properties=species:S:1:pos:R:3 gdb_116759=T pbc="F F F"
C        0.05320000       1.32410000      -0.22130000
O       -0.05970000      -0.08910000      -0.09090000
C        0.57750000      -0.63060000       0.96230000
N        0.50550000      -1.86550000       1.19200000
C        1.21620000      -2.40610000       2.33600000
C        0.27970000      -3.35220000       3.12500000
C        1.08030000      -4.14120000       4.16040000
C       -0.85740000      -2.56370000       3.79430000
O       -0.26060000      -4.30580000       2.21580000
H        1.10110000       1.63750000      -0.29960000
H       -0.46830000       1.58920000      -1.14150000
H       -0.41880000       1.84280000       0.62150000
H        1.15130000       0.08550000       1.57100000
H        2.05560000      -3.00640000       1.96320000
H        1.62420000      -1.62550000       2.99920000
H        1.53850000      -3.47510000       4.89860000
H        0.42350000      -4.83910000       4.68730000
H        1.86830000      -4.72140000       3.67170000
H       -1.42160000      -1.99530000       3.04900000
H       -1.54510000      -3.25600000       4.28730000
H       -0.47460000      -1.86130000       4.54370000
H       -0.48630000      -3.80520000       1.41930000
