19
Properties=species:S:1:pos:R:3 gdb_84457=T pbc="F F F"
C       -0.17120000       1.58420000       0.03330000
C        0.03480000       0.06210000       0.00290000
C        0.83940000      -0.43630000      -1.18450000
C        1.82810000      -1.25770000      -0.83210000
C        1.91750000      -1.41650000       0.65770000
C        2.24750000      -0.11420000       1.39020000
C        0.80980000      -0.50010000       1.19940000
C        2.26040000      -2.67890000       1.23850000
C        2.55970000      -3.74340000       1.71330000
H        0.78540000       2.11360000       0.08080000
H       -0.69930000       1.92420000      -0.86370000
H       -0.76560000       1.88050000       0.90330000
H       -0.96130000      -0.40450000      -0.02160000
H        0.62000000      -0.12320000      -2.19970000
H        2.52260000      -1.75180000      -1.50080000
H        2.64890000      -0.20960000       2.39300000
H        2.67750000       0.68330000       0.79410000
H        0.25720000      -0.80470000       2.07990000
H        2.81880000      -4.68310000       2.13360000
