20
Properties=species:S:1:pos:R:3 gdb_121898=T pbc="F F F"
C        0.00220000       1.37770000       0.09290000
O       -0.07980000      -0.02200000      -0.02080000
C        0.66880000      -0.52690000      -1.10590000
C        0.56150000      -2.04610000      -1.09190000
C        1.31840000      -2.68030000      -2.27140000
O        2.67030000      -2.30420000      -2.26430000
C        1.24900000      -4.21690000      -2.22360000
N        0.02930000      -4.78240000      -2.38240000
O        2.26940000      -4.86430000      -2.05090000
H        1.03930000       1.71600000       0.24540000
H       -0.39330000       1.88600000      -0.80150000
H       -0.59650000       1.67260000       0.95840000
H        0.28220000      -0.12460000      -2.06010000
H        1.72420000      -0.22710000      -1.03120000
H        0.97400000      -2.42790000      -0.15150000
H       -0.49900000      -2.32430000      -1.12080000
H        0.85200000      -2.34650000      -3.21410000
H        3.15370000      -3.13840000      -2.12750000
H       -0.80030000      -4.23430000      -2.52600000
H       -0.05060000      -5.78510000      -2.34070000
