18
Properties=species:S:1:pos:R:3 gdb_79295=T pbc="F F F"
O        0.11320000       1.38560000       0.26260000
C        0.03500000      -0.00170000       0.05300000
C       -1.37000000      -0.54600000      -0.22520000
C       -1.56820000      -0.55720000      -1.70350000
C       -0.29000000      -0.03380000      -2.34220000
O       -0.36810000       1.38400000      -2.48790000
C        0.67870000      -0.55420000      -1.25020000
C        0.21080000      -2.01300000      -1.18020000
N       -1.25850000      -1.81420000      -0.98340000
H       -0.20610000       1.80040000      -0.55210000
H        0.47870000      -0.46960000       0.93810000
H       -2.18150000      -0.45500000       0.48600000
H       -2.53200000      -0.47620000      -2.18980000
H       -0.09590000      -0.49850000      -3.31840000
H        0.44480000       1.68760000      -2.90560000
H        1.74080000      -0.35820000      -1.39090000
H        0.38640000      -2.58480000      -2.09670000
H        0.62810000      -2.56940000      -0.33600000
