23
Properties=species:S:1:pos:R:3 gdb_109384=T pbc="F F F"
C       -0.03240000       1.63100000       0.18730000
C        0.01590000       0.12140000      -0.10760000
C       -1.34650000      -0.54000000      -0.07720000
C       -1.96400000      -0.94270000      -1.20280000
C       -3.38780000      -1.44400000      -1.24530000
C       -3.63250000      -2.82630000      -0.60240000
C       -2.81730000      -3.01600000       0.69660000
C       -2.70080000      -1.79420000       1.57570000
C       -1.99720000      -0.70470000       1.23130000
H        0.97170000       2.06550000       0.15350000
H       -0.65410000       2.15030000      -0.54880000
H       -0.44750000       1.83820000       1.17880000
H        0.46650000      -0.03620000      -1.09390000
H        0.67930000      -0.36230000       0.62130000
H       -1.44090000      -0.83430000      -2.15100000
H       -4.01110000      -0.72300000      -0.70040000
H       -3.74990000      -1.45440000      -2.27840000
H       -4.70690000      -2.92890000      -0.40590000
H       -3.36360000      -3.63260000      -1.29590000
H       -3.22620000      -3.85560000       1.26750000
H       -1.80050000      -3.30270000       0.39720000
H       -3.15440000      -1.83600000       2.56300000
H       -1.86220000       0.08980000       1.96320000
