16
Properties=species:S:1:pos:R:3 gdb_19987=T pbc="F F F"
C       -0.21000000      -1.21680000       0.17640000
C       -0.08110000      -0.02390000       0.09980000
C        0.03730000       1.40460000      -0.01780000
O        0.59450000       2.12020000       1.09920000
C        1.34930000       2.08800000      -0.11210000
C        2.64800000       1.36390000      -0.10380000
C        3.58810000       1.53180000      -1.27510000
C        3.92990000       2.14840000       0.05360000
H       -0.32250000      -2.27030000       0.25170000
H       -0.82290000       1.89700000      -0.47170000
H        1.35750000       3.03880000      -0.65140000
H        2.60840000       0.38490000       0.36060000
H        4.14240000       0.66110000      -1.60570000
H        3.28380000       2.19430000      -2.07910000
H        3.85410000       3.22660000       0.14850000
H        4.72290000       1.70500000       0.64460000
