11
Properties=species:S:1:pos:R:3 gdb_130541=T pbc="F F F"
O        0.00840000      -0.05650000       0.00420000
C       -0.01630000       1.15730000       0.00770000
C        1.17440000       1.97430000       0.00140000
C        2.17420000       2.64320000      -0.00400000
C       -1.31330000       1.87410000       0.01920000
C       -2.59030000       1.39680000       0.02710000
N       -3.41860000       2.48910000       0.03620000
N       -2.74540000       3.55540000       0.03450000
O       -1.36560000       3.20770000       0.02340000
H        3.05990000       3.23230000      -0.00870000
H       -2.95470000       0.38470000       0.02680000
