23
Properties=species:S:1:pos:R:3 gdb_60126=T pbc="F F F"
C        0.27020000       1.52160000      -0.29220000
C        0.03580000       0.03160000      -0.03780000
C       -1.44030000      -0.34270000      -0.06910000
O        0.67780000      -0.80040000      -1.01520000
C        2.07880000      -0.80380000      -0.96150000
C        2.78980000      -1.66400000      -1.98140000
C        2.03290000      -2.55760000      -2.93800000
C        2.77550000      -0.14960000      -2.13320000
O        1.96170000       0.44190000      -3.09950000
H        1.33630000       1.76190000      -0.30870000
H       -0.16450000       1.82720000      -1.24980000
H       -0.19910000       2.11560000       0.49860000
H        0.45250000      -0.22800000       0.94870000
H       -1.87350000      -0.10630000      -1.04650000
H       -1.56820000      -1.41260000       0.11300000
H       -1.99260000       0.21240000       0.69460000
H        2.48660000      -0.72840000       0.04560000
H        3.73040000      -2.07670000      -1.62350000
H        1.17180000      -2.04420000      -3.36850000
H        2.68190000      -2.86600000      -3.76390000
H        1.67030000      -3.46010000      -2.43550000
H        3.69720000       0.40560000      -1.98450000
H        1.05240000       0.29630000      -2.80400000
