18
Properties=species:S:1:pos:R:3 gdb_53815=T pbc="F F F"
N       -0.08570000       1.27630000      -0.27380000
C        0.05620000      -0.05510000      -0.11260000
O        1.12270000      -0.64390000      -0.04360000
C       -1.28720000      -0.77720000      -0.02180000
N       -2.35800000      -0.06570000      -0.10560000
N       -1.21150000      -2.11610000       0.14020000
C       -0.13230000      -3.10930000       0.25950000
C       -1.22650000      -4.20680000       0.39540000
C       -2.29550000      -3.08490000       0.26080000
H        0.73130000       1.85670000      -0.34610000
H       -1.02120000       1.65170000      -0.31710000
H       -3.20400000      -0.63140000      -0.03510000
H        0.50530000      -3.17600000      -0.62490000
H        0.50860000      -2.96160000       1.13160000
H       -1.23940000      -4.94170000      -0.40980000
H       -1.23600000      -4.72690000       1.35350000
H       -2.93370000      -2.92860000       1.14020000
H       -2.93740000      -3.14430000      -0.62770000
