16
Properties=species:S:1:pos:R:3 gdb_24258=T pbc="F F F"
C       -0.05250000       1.55560000      -0.01270000
C        1.45680000       1.88020000      -0.02750000
N        2.20400000       1.42090000       1.16080000
C        2.26110000       0.61640000      -0.09680000
C        1.22270000      -0.42680000      -0.10970000
C       -0.04590000       0.04650000      -0.02620000
C       -0.88660000      -1.10590000       0.07870000
C       -0.03960000      -2.17560000       0.03180000
O        1.26760000      -1.77660000      -0.07280000
H       -0.53070000       1.97500000       0.87920000
H       -0.55290000       1.98940000      -0.88730000
H        1.79300000       2.78100000      -0.52990000
H        3.05900000       1.97130000       1.23340000
H        3.19390000       0.53610000      -0.64280000
H       -1.96140000      -1.15770000       0.16090000
H       -0.19610000      -3.24160000       0.03840000
