21
Properties=species:S:1:pos:R:3 gdb_10722=T pbc="F F F"
C        0.55320000       1.54050000      -0.21960000
C        0.03670000       0.11790000       0.06790000
C        0.13140000      -0.74550000      -1.19700000
C        0.72300000      -0.47960000       1.30100000
C        0.19700000       0.05490000       2.63580000
O        1.00820000      -0.32890000       3.72100000
C        1.31170000      -1.84270000       1.31010000
N        2.19070000      -0.65290000       1.33080000
H        1.60470000       1.52190000      -0.52870000
H       -0.01980000       2.00070000      -1.03060000
H        0.47800000       2.19220000       0.65470000
H       -1.02900000       0.19930000       0.32570000
H        1.17310000      -0.91700000      -1.49530000
H       -0.34730000      -1.71910000      -1.06330000
H       -0.36120000      -0.24160000      -2.03420000
H        0.10440000       1.15250000       2.57810000
H       -0.80870000      -0.34480000       2.81610000
H        1.91640000      -0.25740000       3.38840000
H        1.31120000      -2.40790000       2.23690000
H        1.28230000      -2.43890000       0.40500000
H        2.59620000      -0.49260000       0.41240000
