21
Properties=species:S:1:pos:R:3 gdb_69342=T pbc="F F F"
C        0.03640000       1.56970000       0.06550000
C        0.04410000       0.06950000       0.00810000
C       -0.89690000      -0.79960000       0.79300000
C        0.58630000      -0.95610000       1.00570000
C        1.23950000      -1.78050000      -0.13300000
C        0.82200000      -3.25020000      -0.27480000
C        0.61830000      -0.74740000      -1.16030000
C        2.69210000      -1.67190000      -0.08730000
C        3.89170000      -1.59390000      -0.04150000
H        1.02110000       1.98290000      -0.18110000
H       -0.68730000       1.99180000      -0.64280000
H       -0.23580000       1.92590000       1.06470000
H       -1.41440000      -0.30270000       1.60830000
H       -1.48670000      -1.57400000       0.30830000
H        1.04890000      -0.79520000       1.97250000
H       -0.26630000      -3.34860000      -0.30800000
H        1.23190000      -3.67900000      -1.19450000
H        1.19500000      -3.84010000       0.56780000
H       -0.11390000      -1.16520000      -1.85990000
H        1.39030000      -0.22180000      -1.72440000
H        4.95050000      -1.52400000      -0.00460000
