17
Properties=species:S:1:pos:R:3 gdb_84969=T pbc="F F F"
C       -0.02790000       1.57800000       0.00680000
C        0.02290000       0.04230000       0.01090000
C        0.65790000      -0.50550000      -1.28420000
C        0.96950000      -1.98750000      -1.21260000
O        0.70870000      -2.77560000      -2.08490000
C        1.68980000      -2.44690000       0.08230000
O        2.33800000      -3.46970000       0.09970000
C        1.49810000      -1.58350000       1.26040000
C        0.72990000      -0.48440000       1.23160000
H        0.98120000       2.00310000      -0.01790000
H       -0.57040000       1.94380000      -0.86990000
H       -0.53380000       1.95810000       0.89980000
H       -1.01570000      -0.32100000       0.06010000
H        0.03360000      -0.31240000      -2.16010000
H        1.61720000       0.01210000      -1.43650000
H        1.97810000      -1.91920000       2.17490000
H        0.58440000       0.08280000       2.14970000
