11
Properties=species:S:1:pos:R:3 gdb_130680=T pbc="F F F"
O        0.20980000       0.01950000      -0.01900000
C        0.01900000       1.20810000      -0.04690000
N       -1.20690000       1.87630000      -0.00110000
C       -1.10350000       3.26750000       0.07740000
C        0.35370000       3.46580000       0.03150000
N        0.98570000       2.21180000      -0.13360000
N        0.94670000       4.61080000      -0.01630000
N        1.44750000       5.63510000      -0.05640000
O       -2.00070000       4.07090000       0.14620000
H       -2.08610000       1.38480000       0.02110000
H        1.91350000       2.00870000       0.20520000
