15
Properties=species:S:1:pos:R:3 gdb_70166=T pbc="F F F"
C       -0.31190000       1.51610000       0.10600000
C        0.13600000       0.09260000      -0.00820000
O       -0.63920000      -0.93010000       0.67180000
C        0.71930000      -0.74730000       1.06580000
C        1.61060000      -1.84610000       0.52460000
C        1.36020000      -1.81140000      -0.98520000
O        1.72620000      -2.60450000      -1.80550000
C        0.59350000      -0.49030000      -1.31870000
O        0.45330000      -0.02850000      -2.41800000
H        0.50350000       2.19600000      -0.15870000
H       -1.14060000       1.70650000      -0.58200000
H       -0.64040000       1.73420000       1.12490000
H        0.86930000      -0.33830000       2.06170000
H        2.67240000      -1.64930000       0.71740000
H        1.37040000      -2.82740000       0.94300000
