16
Properties=species:S:1:pos:R:3 gdb_65372=T pbc="F F F"
O       -0.13880000       1.35810000       0.13590000
C       -0.03940000      -0.02690000       0.03720000
C       -0.63810000      -0.90800000       1.12160000
C       -1.34020000      -0.77060000      -0.20110000
C       -2.61620000       0.01420000      -0.28890000
C       -3.82530000      -0.43640000       0.41600000
O       -3.06500000       0.67730000       0.88800000
C        1.15100000      -0.50270000      -0.63960000
N        2.11050000      -0.87420000      -1.16820000
H        0.45430000       1.66260000       0.83220000
H       -0.13800000      -1.83740000       1.36550000
H       -1.08510000      -0.36580000       1.94740000
H       -1.27940000      -1.60530000      -0.89310000
H       -2.74110000       0.59620000      -1.20160000
H       -4.80750000      -0.19590000       0.01350000
H       -3.77680000      -1.32950000       1.03700000
