16
Properties=species:S:1:pos:R:3 gdb_85199=T pbc="F F F"
C        0.13260000       1.48820000      -0.26000000
C       -0.07340000       0.03720000       0.11590000
O        0.59770000      -0.87040000      -0.82990000
C        1.37620000      -1.42150000       0.15430000
O        2.22680000      -2.24140000       0.04300000
C        0.73990000      -0.59200000       1.27780000
C        1.67730000       0.28890000       2.11620000
C        2.38740000      -0.47820000       3.13820000
N        2.93140000      -1.07880000       3.96110000
H        1.19370000       1.73960000      -0.33990000
H       -0.33480000       1.69030000      -1.22750000
H       -0.33100000       2.14540000       0.48290000
H       -1.13690000      -0.21320000       0.15180000
H        0.12680000      -1.21320000       1.93500000
H        2.41390000       0.79490000       1.48430000
H        1.09670000       1.07100000       2.61910000
