15
Properties=species:S:1:pos:R:3 gdb_53930=T pbc="F F F"
N       -0.05160000       1.32750000       0.11860000
C        0.09480000      -0.00340000      -0.06360000
O        1.13370000      -0.57750000      -0.29030000
C       -1.28160000      -0.78160000       0.01280000
N       -2.26900000       0.01820000       0.77970000
C       -1.76410000      -0.91380000      -1.36740000
C       -2.17110000      -1.00350000      -2.49330000
C       -1.04950000      -2.10790000       0.60210000
C       -0.91450000      -3.16950000       1.14700000
H        0.75320000       1.92280000       0.01920000
H       -0.96940000       1.70180000       0.29960000
H       -3.19800000      -0.34970000       0.59640000
H       -2.09080000      -0.12110000       1.77160000
H       -2.51770000      -1.09550000      -3.49320000
H       -0.77240000      -4.11520000       1.60920000
