24
Properties=species:S:1:pos:R:3 gdb_120490=T pbc="F F F"
C        0.00240000       1.49890000       0.07470000
C       -0.02340000      -0.00880000       0.26080000
O       -1.23800000      -0.50380000      -0.26970000
C       -1.36960000      -1.89800000      -0.18500000
C       -1.86890000      -2.44260000       1.18190000
N       -3.23720000      -2.47700000       0.63880000
C       -4.09440000      -3.58310000       0.99280000
C       -2.73320000      -2.37940000      -0.74940000
C       -3.51720000      -1.47440000      -1.68270000
H        0.93360000       1.91650000       0.46900000
H       -0.07300000       1.75510000      -0.98580000
H       -0.83710000       1.96380000       0.59930000
H        0.83110000      -0.47930000      -0.25520000
H        0.06550000      -0.26570000       1.32870000
H       -0.47810000      -2.39130000      -0.59530000
H       -1.45440000      -3.44070000       1.40350000
H       -1.73700000      -1.79860000       2.05880000
H       -4.33250000      -3.54510000       2.06140000
H       -5.03790000      -3.51730000       0.44050000
H       -3.64190000      -4.57230000       0.77950000
H       -2.60470000      -3.37790000      -1.20560000
H       -3.57560000      -0.46530000      -1.27190000
H       -3.04050000      -1.42530000      -2.66740000
H       -4.53350000      -1.85900000      -1.82020000
