20
Properties=species:S:1:pos:R:3 gdb_91789=T pbc="F F F"
C       -0.06090000       1.40110000      -0.11850000
N       -0.03120000      -0.04020000      -0.07560000
C       -1.23960000      -0.84400000      -0.00830000
C       -0.72800000      -2.27840000      -0.04210000
C        0.10730000      -2.66350000      -1.23050000
C        0.78180000      -2.22480000       0.05630000
C        1.66200000      -3.15190000       0.85300000
C        1.13470000      -0.75550000       0.06320000
O        2.24780000      -0.28030000       0.17610000
H        0.97260000       1.75200000      -0.10210000
H       -0.55420000       1.76410000      -1.02870000
H       -0.59320000       1.81570000       0.74800000
H       -1.79540000      -0.63870000       0.91920000
H       -1.91030000      -0.61610000      -0.84860000
H       -1.30020000      -3.03950000       0.47420000
H        0.17150000      -3.72020000      -1.46870000
H        0.13470000      -2.00420000      -2.09300000
H        1.35010000      -4.19350000       0.73190000
H        2.69980000      -3.05820000       0.51980000
H        1.63550000      -2.90930000       1.92060000
