18
Properties=species:S:1:pos:R:3 gdb_45184=T pbc="F F F"
O        0.01930000      -0.02060000      -0.11630000
C        0.00690000       1.18000000      -0.00420000
C       -1.26800000       2.04080000       0.09190000
N       -0.97520000       3.32330000       0.74570000
C       -0.18970000       3.01030000       1.99900000
C        1.09890000       3.15180000       1.19760000
C        0.28530000       3.97230000       0.16000000
C        0.96070000       3.22020000      -0.98880000
C        1.23650000       2.07090000       0.03590000
H       -1.67050000       2.21070000      -0.91360000
H       -2.03500000       1.50170000       0.65550000
H       -0.32040000       3.80980000       2.73540000
H       -0.43140000       2.04990000       2.46810000
H        2.04080000       3.47410000       1.64570000
H        0.19990000       5.05980000       0.14710000
H        0.40400000       2.98450000      -1.90050000
H        1.88790000       3.73160000      -1.26220000
H        2.15820000       1.49560000      -0.03810000
