19
Properties=species:S:1:pos:R:3 gdb_65166=T pbc="F F F"
C        0.11960000       1.55060000      -0.12800000
C        0.05100000       0.03960000      -0.04200000
C        1.16680000      -0.75660000      -0.62170000
N        1.01970000      -0.64640000       0.84090000
C       -1.30770000      -0.61430000       0.01240000
C       -2.58910000       0.13130000       0.22860000
C       -2.33010000      -0.52240000      -1.12190000
C       -2.08860000       0.29050000      -2.27950000
N       -1.89600000       0.93820000      -3.21950000
H        1.16130000       1.87630000      -0.20800000
H       -0.41110000       1.93700000      -1.00300000
H       -0.31080000       2.01470000       0.76660000
H        0.97680000      -1.74750000      -1.02550000
H        1.97210000      -0.21760000      -1.11330000
H        1.68780000       0.02790000       1.20700000
H       -1.25460000      -1.60260000       0.45710000
H       -3.35800000      -0.31230000       0.85020000
H       -2.55650000       1.21370000       0.25540000
H       -2.88010000      -1.43110000      -1.34260000
