16
Properties=species:S:1:pos:R:3 gdb_19255=T pbc="F F F"
C       -0.09350000       1.56320000      -0.01710000
C        0.04680000       0.04810000       0.00430000
C        0.69100000      -0.63100000      -1.21520000
O        2.05600000      -0.19870000      -1.27610000
C        1.72170000      -1.27380000      -0.39010000
C        1.17760000      -0.63930000       0.90390000
C        2.12730000       0.25810000       1.65490000
O        2.11440000       0.39800000       2.85330000
H        0.83200000       2.03640000      -0.35490000
H       -0.89640000       1.86380000      -0.69870000
H       -0.33660000       1.95170000       0.97690000
H       -0.90820000      -0.42710000       0.24700000
H        0.23320000      -0.94000000      -2.14770000
H        2.25680000      -2.20760000      -0.51480000
H        0.73880000      -1.35700000       1.59970000
H        2.85570000       0.80260000       1.01780000
