12
Properties=species:S:1:pos:R:3 gdb_19337=T pbc="F F F"
N        0.08250000      -1.14820000      -0.11210000
C        0.06780000       0.00810000      -0.04140000
C        0.02910000       1.42120000       0.06990000
N        0.21080000       2.34270000      -1.08470000
C        1.15350000       2.40820000       0.03630000
C        0.47190000       3.20450000       1.20740000
O       -0.84530000       3.57560000       0.80170000
C       -0.63210000       2.24970000       1.24760000
H        0.65410000       1.80440000      -1.83030000
H        2.21140000       2.21090000      -0.07120000
H        0.96190000       3.78220000       1.97970000
H       -1.23660000       1.84640000       2.04960000
