18
Properties=species:S:1:pos:R:3 gdb_20268=T pbc="F F F"
C       -0.03460000       1.59350000       0.04680000
C        1.50430000       1.40660000       0.02620000
C        1.85760000       0.71180000       1.35290000
C        3.01010000      -0.26990000       1.01900000
C        1.93760000      -0.99710000       0.18990000
C        1.30780000       0.05250000      -0.77570000
C       -0.06260000       0.05670000      -0.01680000
C        0.82050000      -0.47160000       1.15430000
H       -0.48110000       2.10070000       0.90930000
H       -0.40840000       2.04380000      -0.87810000
H        2.17340000       2.19560000      -0.31930000
H        1.87170000       1.32820000       2.25250000
H        3.89690000       0.12860000       0.51350000
H        3.31680000      -0.85820000       1.88940000
H        2.02650000      -2.03090000      -0.14310000
H        1.41620000       0.04590000      -1.85880000
H       -0.93520000      -0.52170000      -0.31940000
H        0.44610000      -1.01240000       2.02160000
