15
Properties=species:S:1:pos:R:3 gdb_53085=T pbc="F F F"
C       -0.07280000       1.47150000       0.02780000
C        0.00940000       0.02100000       0.01420000
C        0.07190000      -1.18350000       0.00190000
C        0.10440000      -2.59240000      -0.01910000
C        1.13560000      -3.43640000       0.13500000
C        0.64440000      -4.84500000       0.02770000
O       -0.75730000      -4.73750000      -0.20140000
C       -1.13180000      -3.41850000      -0.23840000
O       -2.26040000      -3.07020000      -0.41790000
H        0.55290000       1.91040000      -0.75730000
H       -1.10200000       1.80760000      -0.13560000
H        0.26530000       1.87770000       0.98760000
H        2.17080000      -3.17750000       0.31050000
H        1.10380000      -5.39290000      -0.80570000
H        0.81540000      -5.42570000       0.94380000
