21
Properties=species:S:1:pos:R:3 gdb_86306=T pbc="F F F"
C       -0.82190000       1.20480000      -0.15100000
C        0.07280000      -0.02460000      -0.19110000
C        1.49110000       0.08890000      -0.81740000
C        1.98620000      -0.91090000       0.25450000
O        3.27510000      -0.79910000       0.79820000
C        0.73200000      -0.56880000       1.10930000
C        0.89990000       0.31060000       2.36910000
O        0.26860000      -0.68040000       3.20080000
C        0.06600000      -1.55880000       2.07500000
H       -0.30340000       2.06790000       0.28000000
H       -1.13980000       1.48410000      -1.16130000
H       -1.72500000       1.02660000       0.44330000
H       -0.46910000      -0.85140000      -0.66730000
H        1.62850000      -0.16450000      -1.87100000
H        1.91270000       1.08630000      -0.63830000
H        1.91150000      -1.94180000      -0.10870000
H        3.43330000       0.12560000       1.01510000
H        1.93870000       0.49240000       2.67740000
H        0.35380000       1.26210000       2.37890000
H       -1.00010000      -1.75320000       1.89210000
H        0.58760000      -2.51740000       2.20000000
