17
Properties=species:S:1:pos:R:3 gdb_73905=T pbc="F F F"
C       -0.00730000       1.51070000       0.09520000
C        0.00990000       0.01900000      -0.00500000
C       -0.00400000      -0.75610000      -1.11330000
C        0.02210000      -2.23010000      -0.79560000
C        0.05550000      -2.27050000       0.73420000
O        0.08310000      -3.25440000       1.42350000
C        0.04780000      -0.82030000       1.24590000
C       -0.03990000      -0.29250000      -2.50100000
O       -0.05070000      -1.04510000      -3.45280000
H        0.87790000       1.86500000       0.63820000
H       -0.03490000       2.01050000      -0.87360000
H       -0.87690000       1.84220000       0.67640000
H       -0.85310000      -2.76900000      -1.17740000
H        0.89370000      -2.74630000      -1.21500000
H        0.93470000      -0.62690000       1.86420000
H       -0.81630000      -0.64960000       1.90210000
H       -0.05750000       0.80700000      -2.65120000
