22
Properties=species:S:1:pos:R:3 gdb_75897=T pbc="F F F"
C       -0.22320000       1.54770000      -0.03970000
C        0.07740000       0.05220000       0.00230000
C        0.96370000      -0.40370000      -1.16670000
O        0.97820000       0.04650000      -2.29250000
N        1.72950000      -1.43570000      -0.69830000
C        1.43970000      -1.81850000       0.67130000
C        0.77620000      -0.54020000       1.26180000
C        1.87300000       0.39500000       1.80060000
C       -0.21100000      -0.88510000       2.38040000
H        0.68310000       2.14820000       0.07450000
H       -0.65840000       1.79780000      -1.01050000
H       -0.92960000       1.83850000       0.74400000
H       -0.87010000      -0.49180000      -0.13290000
H        2.29130000      -1.98520000      -1.32900000
H        0.75150000      -2.67590000       0.71800000
H        2.35250000      -2.09280000       1.21090000
H        2.61010000       0.63890000       1.02890000
H        1.45080000       1.33280000       2.17180000
H        2.40200000      -0.08170000       2.63280000
H        0.29740000      -1.37550000       3.21860000
H       -0.69180000       0.01750000       2.77190000
H       -0.99860000      -1.55800000       2.02530000
