14
Properties=species:S:1:pos:R:3 gdb_1806=T pbc="F F F"
N        0.11040000       1.05900000       0.07890000
H       -0.22840000       0.21050000      -0.35820000
H        1.09700000       0.94720000       0.27910000
H       -0.54120000       2.76510000      -0.53920000
C       -0.65830000       1.42790000       1.25120000
C       -1.40060000       0.38730000       2.06920000
C       -0.19540000       1.05800000       2.64830000
C       -1.34690000       2.77120000       1.12860000
O       -1.12230000       3.38020000      -0.04280000
O       -2.03080000       3.24820000       1.99840000
H       -2.37330000       0.67830000       2.44650000
H       -1.30760000      -0.64340000       1.74360000
H        0.72470000       0.48760000       2.72010000
H       -0.35080000       1.80390000       3.41820000
