16
Properties=species:S:1:pos:R:3 gdb_123377=T pbc="F F F"
C        0.40400000      -0.08970000      -1.24900000
C        0.16260000       0.57000000      -0.27350000
C       -0.08730000       1.37290000       0.92990000
N        1.00820000       2.24610000       1.33900000
C        1.36180000       3.30790000       0.50740000
N        2.62720000       3.71930000       0.46510000
N        2.59690000       4.79750000      -0.35630000
C        1.36380000       5.06020000      -0.83720000
C        0.51770000       4.11310000      -0.30030000
H        0.61250000      -0.66720000      -2.11540000
H       -0.98390000       1.98610000       0.78580000
H       -0.31260000       0.70780000       1.77090000
H        1.83170000       1.73160000       1.62540000
H        3.45440000       5.28420000      -0.54720000
H        1.17810000       5.88260000      -1.51020000
H       -0.54180000       4.02210000      -0.46950000
