19
Properties=species:S:1:pos:R:3 gdb_110333=T pbc="F F F"
C       -0.35880000       1.37060000      -0.25620000
C        0.14660000      -0.02830000       0.11990000
C        0.85370000      -0.69730000      -1.04270000
C        0.97650000      -2.14350000      -1.32510000
C       -0.26240000      -2.96880000      -0.97300000
O       -0.56890000      -3.36840000       0.33450000
C       -1.05660000      -1.87800000      -1.71350000
N       -2.25060000      -1.54610000      -1.92130000
N        0.12810000      -1.22650000      -2.23690000
H        0.46480000       2.00640000      -0.59790000
H       -1.09480000       1.30670000      -1.06220000
H       -0.82830000       1.86010000       0.60160000
H        0.85530000       0.03600000       0.95540000
H       -0.70260000      -0.62600000       0.46710000
H        1.71790000      -0.12660000      -1.38110000
H        1.90130000      -2.57080000      -1.69740000
H       -0.27480000      -3.88330000      -1.57570000
H       -0.46070000      -2.61290000       0.92060000
H       -2.88240000      -2.19140000      -1.44110000
