19
Properties=species:S:1:pos:R:3 gdb_68176=T pbc="F F F"
C        0.01140000       1.55120000       0.02200000
C        0.02550000       0.04000000       0.02770000
C        0.95240000      -0.81600000      -0.91540000
C        0.58940000      -1.93480000       0.11260000
C        0.65280000      -0.81080000       1.19570000
C       -0.94070000      -2.01710000      -0.10420000
C       -1.29480000      -0.71990000      -0.15780000
C       -1.69870000      -3.19510000      -0.20880000
C       -2.31170000      -4.23080000      -0.29320000
H        1.01830000       1.95640000       0.16390000
H       -0.37440000       1.93990000      -0.92710000
H       -0.62290000       1.94420000       0.82450000
H        0.63040000      -0.95420000      -1.95040000
H        2.00330000      -0.51070000      -0.87040000
H        1.14170000      -2.86920000       0.19330000
H        1.67500000      -0.50510000       1.44320000
H        0.05560000      -0.94420000       2.10090000
H       -2.27390000      -0.28350000      -0.29780000
H       -2.86400000      -5.13400000      -0.36940000
