23
Properties=species:S:1:pos:R:3 gdb_108196=T pbc="F F F"
C        0.02520000       1.53660000       0.11510000
C       -0.06480000       0.01160000      -0.00450000
C       -1.47890000      -0.54510000      -0.06480000
C       -2.39670000      -0.05750000      -1.22010000
C       -3.81110000      -0.24890000      -0.59850000
C       -3.44780000      -0.82910000       0.78620000
C       -2.98530000      -2.29500000       0.63630000
C       -1.57700000      -2.09380000       0.00550000
O       -2.22920000      -0.14780000       1.10280000
H        1.06390000       1.84860000       0.26020000
H       -0.34520000       2.04230000      -0.78190000
H       -0.56160000       1.88870000       0.96740000
H        0.47790000      -0.33260000      -0.89420000
H        0.43530000      -0.44690000       0.85740000
H       -2.20850000       0.99210000      -1.45380000
H       -2.24640000      -0.63530000      -2.13580000
H       -4.32890000       0.70710000      -0.48990000
H       -4.45470000      -0.91590000      -1.17830000
H       -4.18260000      -0.65110000       1.57220000
H       -2.91680000      -2.77730000       1.61440000
H       -3.66070000      -2.88930000       0.01500000
H       -1.47320000      -2.56220000      -0.97680000
H       -0.79040000      -2.49340000       0.65130000
