18
Properties=species:S:1:pos:R:3 gdb_22496=T pbc="F F F"
C       -0.07090000       1.32830000       0.11770000
O        0.00310000      -0.07190000       0.00870000
C        0.66930000      -0.49380000      -1.16250000
C        0.67450000      -2.01730000      -1.14880000
C        1.35270000      -2.65420000      -2.33790000
N        1.85370000      -1.88160000      -3.23510000
O        2.44800000      -2.58170000      -4.27600000
C        1.39400000      -4.07870000      -2.39070000
C        1.39480000      -5.28230000      -2.37510000
H        0.92880000       1.79020000       0.15360000
H       -0.62290000       1.77650000      -0.72400000
H       -0.59850000       1.55750000       1.04700000
H        0.15930000      -0.11600000      -2.06220000
H        1.69820000      -0.10290000      -1.19160000
H        1.16260000      -2.36860000      -0.23160000
H       -0.35850000      -2.38160000      -1.09200000
H        2.76520000      -1.87330000      -4.84730000
H        1.40640000      -6.34450000      -2.38020000
