15
Properties=species:S:1:pos:R:3 gdb_13573=T pbc="F F F"
C        0.31330000       1.38590000       0.20850000
C        0.01370000      -0.06200000      -0.09610000
C        0.78400000      -0.81030000      -1.15390000
N        0.95890000      -1.10230000       0.25310000
C        2.10430000      -0.94960000       1.01340000
O        2.13140000      -0.36990000       2.07940000
C        3.26730000      -1.62590000       0.45850000
C        4.25290000      -2.15670000       0.01890000
H        1.34310000       1.64420000      -0.05340000
H       -0.36120000       2.03230000      -0.36190000
H        0.18000000       1.59370000       1.27320000
H       -1.02340000      -0.35820000       0.05380000
H        0.30020000      -1.58410000      -1.74390000
H        1.58590000      -0.27780000      -1.66050000
H        5.12920000      -2.62590000      -0.35740000
