16
Properties=species:S:1:pos:R:3 gdb_67020=T pbc="F F F"
C        0.06790000       1.60610000      -0.04450000
C       -0.06670000       0.11690000      -0.01020000
N        0.48690000      -0.71520000      -1.13600000
C       -0.53170000      -1.72870000      -0.79180000
C       -0.48830000      -1.86130000       0.74170000
C        0.37050000      -0.73100000       1.20820000
O        0.94080000      -0.46070000       2.22660000
C       -1.38850000      -0.81900000       0.03110000
O       -2.71310000      -0.63230000       0.30060000
H        1.12470000       1.87950000      -0.12690000
H       -0.46680000       2.04680000      -0.89320000
H       -0.32200000       2.04660000       0.87740000
H        0.20490000      -0.27990000      -2.01490000
H       -0.76180000      -2.58970000      -1.40660000
H       -0.80990000      -2.75970000       1.24970000
H       -3.11810000      -0.16850000      -0.44180000
