19
Properties=species:S:1:pos:R:3 gdb_85287=T pbc="F F F"
C        0.17520000       1.51600000      -0.10760000
C       -0.04800000       0.02420000       0.07200000
O        0.43770000      -0.67300000      -1.10120000
C        1.15060000      -1.79180000      -0.76910000
N        1.48820000      -2.70840000      -1.56920000
C        1.43880000      -1.75660000       0.68920000
N        2.13890000      -0.49500000       1.07270000
C        0.68310000      -0.61310000       1.25450000
C        0.05560000      -0.58230000       2.62150000
H        1.24570000       1.72780000      -0.14610000
H       -0.29290000       1.86190000      -1.03270000
H       -0.26900000       2.06890000       0.72670000
H       -1.12120000      -0.19520000       0.15830000
H        1.13090000      -2.51170000      -2.50620000
H        1.64680000      -2.67790000       1.21730000
H        2.59870000      -0.65350000       1.96800000
H        0.00290000       0.44130000       3.00930000
H       -0.96280000      -0.98420000       2.59810000
H        0.63680000      -1.17930000       3.33140000
