16
Properties=species:S:1:pos:R:3 gdb_53480=T pbc="F F F"
C        0.24720000       1.55300000       0.00660000
C        0.11590000       0.10390000      -0.00010000
C       -0.00270000      -1.09250000      -0.00550000
C       -0.14390000      -2.53670000      -0.01070000
C       -1.60850000      -3.01960000       0.00140000
O       -2.56600000      -2.30010000       0.01600000
N       -1.68250000      -4.42490000      -0.00710000
C       -2.82620000      -5.22130000       0.00010000
O       -3.96310000      -4.84290000       0.01450000
H        1.29960000       1.85720000      -0.00140000
H       -0.23490000       1.99730000      -0.87080000
H       -0.21880000       1.98760000       0.89740000
H        0.34630000      -2.97260000      -0.89340000
H        0.36290000      -2.98060000       0.85860000
H       -0.80730000      -4.92890000      -0.01990000
H       -2.53850000      -6.29320000      -0.01070000
