19
Properties=species:S:1:pos:R:3 gdb_38499=T pbc="F F F"
C        0.03030000       1.53750000      -0.06140000
C        1.31570000       0.75610000      -0.00560000
O        1.96550000       0.61570000       1.25140000
C        1.22770000      -0.27130000       2.04080000
C       -0.07600000       0.13570000       2.66070000
C       -0.07630000      -0.64900000       1.36330000
C        0.22660000      -2.14180000       1.62520000
C        1.59680000      -1.74140000       2.28060000
C       -0.02180000       0.02240000       0.01670000
H       -0.25950000       2.13450000       0.79510000
H       -0.23140000       1.98340000      -1.01620000
H        2.00990000       0.76500000      -0.83920000
H       -0.41730000      -0.35170000       3.57130000
H       -0.32180000       1.18780000       2.60610000
H       -0.49190000      -2.66090000       2.26680000
H        0.35310000      -2.71940000       0.70700000
H        2.44940000      -2.04700000       1.67160000
H        1.77450000      -2.04310000       3.31750000
H       -0.37820000      -0.52800000      -0.84620000
