16
Properties=species:S:1:pos:R:3 gdb_129965=T pbc="F F F"
N        0.05010000       1.35650000       0.08920000
C       -0.03610000      -0.01830000       0.01200000
N       -1.14930000      -0.72750000       0.06630000
C       -0.70620000      -2.00730000      -0.13530000
N        0.59980000      -2.13180000      -0.29380000
N        1.02080000      -0.83060000      -0.20460000
C       -1.61870000      -3.16750000      -0.16050000
C       -1.49470000      -4.17670000      -1.25390000
N       -1.08320000      -4.51170000       0.11200000
H        0.84790000       1.71290000       0.59700000
H       -0.81510000       1.75910000       0.42250000
H        1.99310000      -0.60610000      -0.32850000
H       -2.59710000      -2.96410000       0.26270000
H       -2.38210000      -4.69340000      -1.60950000
H       -0.72750000      -3.99680000      -2.00150000
H       -0.07010000      -4.43370000       0.18560000
