14
Properties=species:S:1:pos:R:3 gdb_49860=T pbc="F F F"
O       -0.13320000      -0.03500000       0.06840000
C       -0.06720000       1.15940000      -0.04000000
C        1.24790000       1.92810000      -0.04780000
N        2.40430000       1.06140000      -0.11380000
C        3.25630000       1.29540000      -1.17390000
O        4.26150000       0.68380000      -1.44090000
C        2.66430000       2.47260000      -1.93140000
O        1.38400000       2.12270000      -2.49450000
C        1.41060000       2.83960000      -1.26570000
H       -0.97480000       1.79790000      -0.10740000
H        1.25130000       2.55290000       0.86220000
H        2.36970000       0.14500000       0.30890000
H        3.28880000       3.13790000      -2.51620000
H        0.98830000       3.83910000      -1.27050000
