18
Properties=species:S:1:pos:R:3 gdb_106468=T pbc="F F F"
O        0.03820000       1.41300000      -0.11570000
C        0.03390000       0.01570000       0.10350000
C       -1.35000000      -0.57070000      -0.03520000
C       -2.13840000      -0.54320000      -1.36950000
C       -2.93140000      -1.74180000      -0.76660000
C       -1.62940000      -2.09420000       0.01710000
N       -3.92880000      -1.22390000       0.17860000
C       -3.45590000      -0.35500000       0.96880000
O       -2.16770000       0.07740000       0.98270000
H       -0.60430000       1.78760000       0.49760000
H        0.68840000      -0.42810000      -0.65310000
H        0.43810000      -0.24420000       1.09540000
H       -2.69450000       0.36140000      -1.61920000
H       -1.49840000      -0.84320000      -2.20190000
H       -3.38130000      -2.48220000      -1.42610000
H       -0.91250000      -2.64330000      -0.59730000
H       -1.73680000      -2.56340000       0.99690000
H       -4.05260000       0.13560000       1.73330000
