22
Properties=species:S:1:pos:R:3 gdb_89408=T pbc="F F F"
C        0.03030000       1.59470000      -0.00440000
C        0.08040000       0.06770000      -0.00410000
C        0.83240000      -0.56120000      -1.16680000
N        2.30780000      -0.57460000      -0.95980000
C        1.50500000      -1.80520000      -0.71630000
C        1.71940000      -3.01390000      -1.58760000
C        1.20460000      -1.97320000       0.76790000
C        0.78070000      -0.55980000       1.24450000
O        1.88850000       0.19870000       1.69120000
H        1.03680000       2.01750000       0.02560000
H       -0.47710000       1.96840000      -0.90040000
H       -0.51140000       1.96930000       0.86970000
H       -0.94660000      -0.32400000      -0.04020000
H        0.46240000      -0.45030000      -2.18240000
H        2.77750000      -0.64840000      -1.85900000
H        1.82600000      -2.73260000      -2.64110000
H        2.62280000      -3.55970000      -1.29150000
H        0.87490000      -3.70730000      -1.50950000
H        0.38330000      -2.69090000       0.88760000
H        2.05890000      -2.33500000       1.34810000
H        0.09360000      -0.60900000       2.09390000
H        2.49890000       0.21130000       0.93650000
