18
Properties=species:S:1:pos:R:3 gdb_70848=T pbc="F F F"
C        0.01820000       1.43050000      -0.12170000
C       -0.04850000      -0.06320000      -0.05340000
O        0.48950000      -0.77050000      -1.20000000
C       -0.28670000      -1.91000000      -0.74910000
C       -0.54870000      -2.96540000      -1.77750000
C        0.20750000      -2.24370000       0.68970000
C        0.38500000      -0.86640000       1.20850000
N       -0.93660000      -1.56100000       1.38690000
C       -1.29230000      -0.99500000       0.00620000
H        1.06110000       1.76510000      -0.13880000
H       -0.47520000       1.80000000      -1.02480000
H       -0.46960000       1.87290000       0.75210000
H        0.39110000      -3.42990000      -2.09500000
H       -1.19470000      -3.74600000      -1.36470000
H       -1.03390000      -2.53660000      -2.65850000
H        0.67870000      -3.13540000       1.08470000
H        1.00800000      -0.58050000       2.04720000
H       -2.31910000      -0.75940000      -0.26790000
