20
Properties=species:S:1:pos:R:3 gdb_99949=T pbc="F F F"
C        0.10850000       1.57940000       0.00950000
C       -0.00520000       0.05150000       0.00240000
C       -1.44460000      -0.51010000       0.01310000
C       -2.21760000      -0.09520000       1.28670000
C       -2.24160000      -0.08160000      -1.24100000
C       -1.35210000      -2.03610000       0.00400000
O       -0.33620000      -2.68260000      -0.00900000
C       -2.65350000      -2.75740000       0.01260000
N       -3.65680000      -3.33260000       0.01900000
H        1.16280000       1.87140000       0.00110000
H       -0.36120000       2.03350000      -0.86830000
H       -0.34440000       2.02410000       0.90090000
H        0.51250000      -0.34790000      -0.87660000
H        0.52910000      -0.35720000       0.86710000
H       -2.37850000       0.98580000       1.28830000
H       -3.19970000      -0.57430000       1.33430000
H       -1.66260000      -0.35910000       2.19250000
H       -1.70390000      -0.33560000      -2.16000000
H       -3.22440000      -0.56040000      -1.27510000
H       -2.40250000       0.99930000      -1.22790000
