14
Properties=species:S:1:pos:R:3 gdb_77214=T pbc="F F F"
O        0.06180000       1.20290000       0.27750000
C        0.18540000      -0.15020000      -0.02070000
C       -1.18940000      -0.79790000      -0.31950000
O       -0.73510000      -1.22730000      -1.63930000
C        0.53110000      -0.56360000      -1.49310000
C        0.72590000       0.55020000      -2.42160000
N        0.91550000       1.43470000      -3.14050000
C       -1.63140000      -1.88880000       0.52320000
C       -1.99280000      -2.78730000       1.23440000
H        0.93420000       1.58250000       0.42820000
H        0.78250000      -0.70010000       0.71400000
H       -1.96530000      -0.02870000      -0.41150000
H        1.36510000      -1.26700000      -1.59780000
H       -2.32000000      -3.58170000       1.85940000
