20
Properties=species:S:1:pos:R:3 gdb_93631=T pbc="F F F"
C       -0.47020000       1.47010000       0.09160000
C        0.00050000       0.01750000       0.09640000
C        0.68690000      -0.44570000      -1.20970000
C        1.59840000      -1.64100000      -0.82140000
C        1.52070000      -1.72740000       0.73530000
C        2.77310000      -2.09780000       1.38100000
N        3.77300000      -2.33300000       1.91310000
C        1.03750000      -0.31610000       1.17830000
O        2.08040000       0.63470000       1.09820000
H        0.37760000       2.14780000      -0.03370000
H       -1.17660000       1.64430000      -0.72640000
H       -0.97430000       1.72840000       1.02860000
H       -0.86210000      -0.63560000       0.28720000
H       -0.04470000      -0.71460000      -1.97610000
H        1.29260000       0.37090000      -1.61160000
H        1.27470000      -2.58350000      -1.26830000
H        2.62820000      -1.47140000      -1.13970000
H        0.75860000      -2.45700000       1.03180000
H        0.60170000      -0.34320000       2.18710000
H        2.77890000       0.37770000       1.71120000
