16
Properties=species:S:1:pos:R:3 gdb_125320=T pbc="F F F"
C        0.23410000       1.47380000      -0.12880000
C        0.04260000      -0.00530000      -0.05540000
C        0.10180000      -0.95620000      -1.04790000
N       -0.16550000      -2.12960000      -0.41780000
C       -0.17670000      -3.47260000      -0.94880000
C        1.23180000      -4.01670000      -1.18590000
O        1.48470000      -4.84000000      -2.02140000
N       -0.36910000      -1.92080000       0.90030000
N       -0.24800000      -0.64460000       1.11710000
H        1.02550000       1.79860000       0.55360000
H        0.50450000       1.78490000      -1.14080000
H       -0.68010000       2.00290000       0.15860000
H        0.29330000      -0.89830000      -2.10650000
H       -0.66420000      -4.10290000      -0.19710000
H       -0.75180000      -3.52830000      -1.87640000
H        2.00230000      -3.59660000      -0.50300000
