18
Properties=species:S:1:pos:R:3 gdb_22880=T pbc="F F F"
C       -0.23720000       1.53430000       0.03010000
C        0.05260000       0.03480000      -0.00180000
C        0.86590000      -0.46590000      -1.24140000
O        1.58600000       0.54670000      -1.94070000
C        1.80640000      -1.49650000      -0.65760000
C        1.82520000      -1.46960000       0.68230000
C        0.85080000      -0.49750000       1.18150000
N        0.62220000      -0.11040000       2.37780000
O        1.45080000      -0.76480000       3.30520000
H        0.68570000       2.12030000       0.02720000
H       -0.82520000       1.83490000      -0.84130000
H       -0.79230000       1.78720000       0.93640000
H       -0.90390000      -0.50430000      -0.00830000
H        0.19900000      -0.88730000      -1.99990000
H        2.29990000       0.84640000      -1.36640000
H        2.43660000      -2.11310000      -1.28880000
H        2.45450000      -2.05820000       1.33490000
H        1.16470000      -0.37860000       4.13940000
