19
Properties=species:S:1:pos:R:3 gdb_101093=T pbc="F F F"
O       -0.09500000       1.50950000       0.14040000
C       -0.05920000       0.11810000       0.37040000
C       -1.36980000      -0.52610000      -0.10860000
O       -1.61590000      -0.14260000      -1.45830000
C       -1.39530000      -2.03810000       0.07050000
C       -1.62860000      -2.61710000       1.46130000
C       -2.71070000      -2.72950000       0.44780000
C       -0.54880000      -2.83770000      -0.84080000
O        0.05460000      -2.39440000      -1.79510000
H       -0.47750000       1.60710000      -0.74220000
H        0.79050000      -0.35810000      -0.14480000
H        0.07220000      -0.03510000       1.44730000
H       -2.18850000      -0.08470000       0.47270000
H       -0.97960000      -0.64270000      -1.99250000
H       -1.07830000      -3.51090000       1.73640000
H       -1.73840000      -1.89490000       2.26250000
H       -3.57410000      -2.07840000       0.51890000
H       -2.91440000      -3.70200000       0.01270000
H       -0.51280000      -3.92600000      -0.60850000
