19
Properties=species:S:1:pos:R:3 gdb_65345=T pbc="F F F"
C        0.17980000       1.47050000      -0.04440000
C        0.03780000      -0.04270000       0.05620000
C        1.29460000      -0.90590000       0.01880000
C        0.52830000      -0.78500000       1.30330000
C        1.10050000      -0.05740000       2.47960000
C        2.39980000      -0.43310000       3.05860000
O        2.26160000       0.74960000       2.26840000
C       -1.14050000      -0.57840000      -0.57530000
C       -2.13290000      -1.00680000      -1.10420000
H        1.09430000       1.81220000       0.44310000
H        0.20980000       1.77650000      -1.09460000
H       -0.67250000       1.97230000       0.42450000
H        1.25420000      -1.84200000      -0.52460000
H        2.23500000      -0.36880000      -0.03830000
H       -0.08350000      -1.63640000       1.58850000
H        0.36900000       0.39900000       3.14860000
H        2.59180000      -0.26590000       4.11710000
H        2.97230000      -1.23560000       2.59660000
H       -3.00610000      -1.38730000      -1.57270000
