21
Properties=species:S:1:pos:R:3 gdb_107254=T pbc="F F F"
C       -1.03640000       1.69120000      -2.04580000
O       -1.14000000       1.25620000      -0.70890000
C       -1.94490000       0.15600000      -0.47950000
C       -2.12470000      -1.03680000      -1.36800000
C       -3.34570000      -0.23260000      -0.92380000
C       -3.73930000      -0.45970000       0.56130000
C       -2.86470000      -1.45220000       1.28680000
C       -2.34390000      -0.06450000       1.01500000
C       -1.91310000       0.89710000       2.08450000
H       -0.47350000       2.62700000      -2.02870000
H       -0.49870000       0.96810000      -2.67480000
H       -2.02490000       1.87820000      -2.49010000
H       -1.87830000      -0.85470000      -2.41030000
H       -1.93390000      -2.06220000      -1.06640000
H       -4.01620000       0.20700000      -1.65080000
H       -4.68710000      -0.12660000       0.96640000
H       -3.14530000      -1.61510000       2.32410000
H       -2.47000000      -2.34260000       0.81070000
H       -0.86310000       0.74650000       2.36230000
H       -2.01800000       1.93380000       1.75090000
H       -2.51940000       0.76240000       2.98620000
