19
Properties=species:S:1:pos:R:3 gdb_45537=T pbc="F F F"
O        0.04850000      -0.01130000      -0.24900000
C        0.00970000       1.18800000      -0.10460000
C       -1.27670000       2.03630000       0.05370000
C       -0.79260000       3.48590000      -0.06430000
C       -1.11610000       4.56990000       0.97880000
C        0.04730000       5.57910000       0.79700000
C        1.29550000       4.72090000       0.41590000
C        0.71290000       3.38140000       0.06490000
C        1.15850000       2.12050000       0.01570000
H       -2.03120000       1.73750000      -0.67730000
H       -1.68900000       1.83120000       1.04900000
H       -1.03580000       3.88730000      -1.05960000
H       -2.09790000       5.03200000       0.84650000
H       -1.08710000       4.13190000       1.98430000
H       -0.19040000       6.27030000      -0.01820000
H        0.21910000       6.18660000       1.68860000
H        1.85160000       5.16050000      -0.41970000
H        2.00580000       4.62810000       1.24380000
H        2.18010000       1.77170000       0.10000000
