18
Properties=species:S:1:pos:R:3 gdb_63994=T pbc="F F F"
C       -0.22720000       1.60200000      -0.12630000
C        0.03660000       0.10290000      -0.02880000
C       -1.24310000      -0.70240000       0.17200000
C        0.92800000      -0.44030000      -1.18820000
N        2.16780000      -0.90630000      -0.56150000
C        2.03260000      -0.68520000       0.68680000
O        0.88570000      -0.11950000       1.14530000
C        3.00760000      -0.98630000       1.68260000
C        3.82210000      -1.23580000       2.52950000
H        0.71300000       2.15160000      -0.22760000
H       -0.84850000       1.81960000      -1.00120000
H       -0.74670000       1.96610000       0.76460000
H       -1.90600000      -0.57870000      -0.69070000
H       -1.01450000      -1.76660000       0.27940000
H       -1.77700000      -0.37090000       1.06720000
H        0.44940000      -1.26870000      -1.72340000
H        1.15640000       0.33360000      -1.93040000
H        4.54800000      -1.45990000       3.27200000
