17
Properties=species:S:1:pos:R:3 gdb_63048=T pbc="F F F"
C       -0.00190000       1.50550000      -0.00840000
C        0.03960000      -0.01730000      -0.01070000
O       -1.25310000      -0.57750000      -0.12150000
C        1.06770000      -0.64120000      -1.00090000
O        2.30000000       0.04360000      -0.62240000
C        2.23600000      -0.74650000       0.56740000
C        1.50380000      -1.90110000      -0.11310000
O        0.58560000      -2.07420000       0.96160000
C        0.76700000      -0.65370000       1.20260000
H        0.99720000       1.93370000       0.07810000
H       -0.44370000       1.87940000      -0.94080000
H       -0.62140000       1.85590000       0.82300000
H       -1.72530000      -0.07920000      -0.79650000
H        0.86680000      -0.65340000      -2.07090000
H        3.12930000      -0.76930000       1.18840000
H        1.91090000      -2.80550000      -0.56020000
H        0.52600000      -0.33510000       2.21490000
