19
Properties=species:S:1:pos:R:3 gdb_80902=T pbc="F F F"
C       -0.13190000       1.55120000      -0.06330000
C        0.04950000       0.04070000      -0.04440000
O       -1.23390000      -0.55100000      -0.29920000
C        1.29680000      -0.64150000      -0.70440000
C        2.12850000      -0.13070000       0.51370000
C        0.81690000      -0.67330000       1.12520000
O        0.50660000      -0.64920000       2.46860000
C        1.02670000      -1.91440000       0.17770000
O        0.02030000      -2.83610000      -0.08600000
H       -0.51880000       1.87290000      -1.03920000
H       -0.86290000       1.84030000       0.69780000
H        0.78800000       2.10730000       0.11610000
H       -1.60690000      -0.13560000      -1.08400000
H        1.58930000      -0.60900000      -1.75200000
H        3.02650000      -0.70650000       0.74450000
H        2.31870000       0.93730000       0.58450000
H       -0.21500000      -1.27220000       2.61370000
H        1.92890000      -2.48840000       0.40560000
H       -0.77070000      -2.31980000      -0.30050000
