13
Properties=species:S:1:pos:R:3 gdb_13578=T pbc="F F F"
C        0.26640000       1.49590000      -0.46270000
C       -0.01640000       0.08880000      -0.01520000
O        1.07270000      -0.81930000       0.05000000
C        0.44780000      -0.49600000       1.27980000
C        1.23910000       0.32550000       2.24620000
O        2.23380000       0.95450000       1.98840000
C        0.66900000       0.33650000       3.61210000
N        0.20980000       0.34210000       4.67340000
H        1.17790000       1.88260000      -0.00520000
H        0.39100000       1.51110000      -1.55020000
H       -0.57510000       2.14980000      -0.21240000
H       -0.93540000      -0.35570000      -0.40210000
H       -0.15300000      -1.28340000       1.73500000
