17
Properties=species:S:1:pos:R:3 gdb_77424=T pbc="F F F"
C       -0.02940000       1.69740000      -0.09980000
C        0.16190000       0.19260000      -0.01650000
C        1.38830000      -0.68570000      -0.20230000
O        1.48300000      -1.68840000      -1.14920000
C        2.65300000      -0.22740000       0.60640000
O        2.39340000       0.99770000       1.30710000
C        1.90410000      -0.23610000       1.85750000
C        0.60160000      -0.70070000       1.11620000
O       -0.27110000      -1.61970000       1.66250000
H       -0.08250000       2.00940000      -1.14960000
H       -0.98140000       1.97330000       0.36750000
H        0.77100000       2.24660000       0.38680000
H       -0.65670000      -0.34860000      -0.49830000
H        1.50830000      -1.28470000      -2.02400000
H        3.68080000      -0.48960000       0.38150000
H        2.19090000      -0.49390000       2.87130000
H        0.18800000      -2.46210000       1.76000000
