20
Properties=species:S:1:pos:R:3 gdb_63922=T pbc="F F F"
C       -0.28100000       1.57520000       0.04850000
C       -0.01130000       0.07150000      -0.04960000
O       -1.24850000      -0.63860000       0.08280000
C        0.75810000      -0.37580000      -1.33480000
C        2.12770000      -0.84740000      -0.82960000
C        2.84450000       0.30600000      -0.09630000
N        2.29810000      -0.12370000       1.23730000
C        1.87000000      -1.42160000       0.59020000
C        0.85580000      -0.47850000       1.08360000
H        0.63970000       2.16250000       0.01210000
H       -0.91750000       1.90570000      -0.78200000
H       -0.79710000       1.80200000       0.98590000
H       -1.86440000      -0.27520000      -0.56260000
H        0.20350000      -1.20510000      -1.78460000
H        0.84930000       0.42420000      -2.07800000
H        2.70830000      -1.42820000      -1.54590000
H        3.92980000       0.18270000      -0.05850000
H        2.61700000       1.33460000      -0.39930000
H        2.11930000      -2.39500000       0.99470000
H        0.36980000      -0.62460000       2.04190000
