21
Properties=species:S:1:pos:R:3 gdb_94438=T pbc="F F F"
C       -0.34250000       1.39970000      -0.00870000
C        0.07190000      -0.06180000      -0.08530000
C        1.40090000      -0.37820000      -0.80400000
O        1.96040000      -0.96510000       0.38960000
C        0.76710000      -0.71330000       1.14210000
C        0.86540000      -0.00450000       2.51340000
C       -0.25480000      -0.94660000       3.03320000
C        0.07970000      -1.89860000       1.85050000
O       -0.95610000      -2.51230000       1.12250000
H        0.48100000       2.03620000       0.33220000
H       -0.65430000       1.76130000      -0.99480000
H       -1.18620000       1.54380000       0.67490000
H       -0.75750000      -0.67720000      -0.43830000
H        1.34630000      -1.09930000      -1.62790000
H        1.97450000       0.49850000      -1.13320000
H        1.83390000      -0.21570000       2.97480000
H        0.68560000       1.07140000       2.54580000
H       -0.16500000      -1.34030000       4.04760000
H       -1.24930000      -0.51120000       2.90190000
H        0.85430000      -2.62240000       2.14270000
H       -1.25260000      -3.29070000       1.60320000
