17
Properties=species:S:1:pos:R:3 gdb_25617=T pbc="F F F"
O       -0.77700000       0.87000000       0.64350000
C        0.06610000       1.00920000      -0.20260000
C        1.27350000       1.91420000      -0.07780000
C        1.28990000       2.98350000      -1.18790000
N        2.51610000       3.75760000      -1.20750000
C        2.89330000       4.73610000      -0.30990000
C        4.14130000       5.13800000      -0.70590000
N        4.54640000       4.43660000      -1.81760000
C        3.55370000       3.62150000      -2.08660000
H        0.00260000       0.45980000      -1.17160000
H        1.27450000       2.37170000       0.91430000
H        2.17590000       1.29680000      -0.18000000
H        1.18450000       2.50880000      -2.16880000
H        0.44040000       3.66320000      -1.06550000
H        2.24680000       5.04440000       0.49540000
H        4.76730000       5.89530000      -0.25880000
H        3.51360000       2.91500000      -2.90340000
