16
Properties=species:S:1:pos:R:3 gdb_123643=T pbc="F F F"
C       -0.05300000       1.43290000       0.02060000
C        1.41320000       1.86520000      -0.02960000
N        2.19030000       1.46680000       1.15610000
C        2.27790000       0.64490000      -0.08380000
C        1.34360000      -0.49960000      -0.05850000
C        1.23620000      -1.87560000      -0.04510000
C       -0.15750000      -2.10350000       0.04930000
N       -0.86270000      -0.96780000       0.09370000
N        0.07660000      -0.01850000       0.01590000
H       -0.55900000       1.77650000       0.92700000
H       -0.61270000       1.77790000      -0.85530000
H        1.67140000       2.77460000      -0.55970000
H        3.01800000       2.05690000       1.22140000
H        3.20650000       0.61120000      -0.64020000
H        2.02780000      -2.60550000      -0.08280000
H       -0.67490000      -3.05120000       0.08570000
