15
Properties=species:S:1:pos:R:3 gdb_74353=T pbc="F F F"
N       -0.01060000       1.39900000      -0.21960000
C       -0.08310000       0.05510000      -0.11390000
N       -1.14090000      -0.67380000      -0.15220000
C       -0.75270000      -2.08310000       0.05980000
C        0.76920000      -2.15830000       0.25710000
C        1.20260000      -0.71400000       0.08580000
O        2.30580000      -0.22870000       0.07640000
C       -1.56080000      -2.60680000       1.24380000
O       -1.09960000      -3.22500000       2.16760000
H        0.90700000       1.79720000      -0.33880000
H       -0.81370000       1.92600000      -0.51700000
H       -1.08390000      -2.66570000      -0.81370000
H        1.01930000      -2.52120000       1.25940000
H        1.28270000      -2.80100000      -0.46220000
H       -2.63970000      -2.35100000       1.18690000
