21
Properties=species:S:1:pos:R:3 gdb_93964=T pbc="F F F"
O       -0.33660000       1.28950000       0.78640000
C        0.03960000       0.15190000       0.02450000
C        0.77410000      -0.88500000       0.87290000
O       -0.26360000      -1.56320000       1.58010000
C       -1.45860000      -1.59200000       0.77100000
C       -1.17070000      -0.67560000      -0.44140000
C       -1.84070000      -3.01090000       0.40100000
C       -0.79080000      -4.05680000       0.12670000
C       -1.64190000      -4.14210000       1.37240000
H       -0.69310000       0.97000000       1.62330000
H        0.64140000       0.52890000      -0.80610000
H        1.34980000      -1.57820000       0.24060000
H        1.44770000      -0.43120000       1.60510000
H       -2.26220000      -1.16700000       1.38920000
H       -2.01490000      -0.03540000      -0.70360000
H       -0.90350000      -1.27800000      -1.31600000
H       -2.73660000      -3.05490000      -0.21420000
H       -0.96700000      -4.76550000      -0.67480000
H        0.24780000      -3.77950000       0.26430000
H       -1.15530000      -3.90430000       2.31120000
H       -2.40190000      -4.91320000       1.43160000
