16
Properties=species:S:1:pos:R:3 gdb_51936=T pbc="F F F"
O       -0.50150000       1.43560000      -0.49130000
C        0.15230000       1.55060000       0.52340000
N        1.49790000       1.37450000       0.61100000
C        2.32130000       1.09280000      -0.56010000
C        3.47380000       1.98290000      -0.65600000
C        4.43240000       2.70710000      -0.70970000
C        5.59540000       3.59290000      -0.79230000
C        6.58530000       3.36120000       0.26160000
C        7.40220000       3.18060000       1.12250000
H       -0.29090000       1.80940000       1.50480000
H        1.95870000       1.54140000       1.49120000
H        2.65970000       0.04780000      -0.54740000
H        1.65990000       1.20260000      -1.42550000
H        6.07430000       3.47100000      -1.77370000
H        5.26320000       4.63940000      -0.75540000
H        8.12500000       3.01860000       1.88330000
