20
Properties=species:S:1:pos:R:3 gdb_95028=T pbc="F F F"
O        0.18600000       1.44540000      -0.07220000
C        0.07310000       0.03950000       0.00540000
C        0.63600000      -0.53590000       1.33140000
C       -0.52510000      -0.45180000       2.34910000
C       -1.76450000      -0.80250000       1.50540000
C       -2.94030000       0.18750000       1.37780000
N       -2.36150000       1.50660000       1.03160000
C       -2.58310000       0.49270000      -0.03660000
C       -1.39100000      -0.48140000       0.01140000
H       -0.51720000       1.80840000       0.49100000
H        0.63360000      -0.34940000      -0.85130000
H        0.91510000      -1.58690000       1.17770000
H        1.53410000       0.00540000       1.64120000
H       -0.38410000      -1.11830000       3.20410000
H       -0.61050000       0.56870000       2.73400000
H       -2.10990000      -1.82820000       1.64990000
H       -3.91000000       0.13600000       1.85740000
H       -3.12420000       2.17890000       0.97980000
H       -3.21310000       0.73230000      -0.88390000
H       -1.53340000      -1.32990000      -0.66040000
