18
Properties=species:S:1:pos:R:3 gdb_16667=T pbc="F F F"
C        0.03460000       1.58550000      -0.03690000
C        0.04650000       0.06050000       0.00110000
C        0.72720000      -0.62310000      -1.21870000
C        1.26760000      -1.93320000      -0.66970000
O        2.47030000      -1.76920000       0.10490000
C        1.22080000      -1.91660000       0.80080000
C        0.71880000      -0.54660000       1.27310000
O        1.78230000       0.22690000       1.79530000
H        1.05260000       1.98310000      -0.01000000
H       -0.45560000       1.95040000      -0.94550000
H       -0.50040000       1.99860000       0.82430000
H       -0.99060000      -0.30110000       0.01910000
H        0.01970000      -0.78860000      -2.03680000
H        1.55180000      -0.02230000      -1.61920000
H        1.22990000      -2.85150000      -1.25000000
H        1.13680000      -2.80560000       1.41990000
H       -0.01240000      -0.64290000       2.08180000
H        2.55330000       0.00500000       1.25510000
