21
Properties=species:S:1:pos:R:3 gdb_88624=T pbc="F F F"
C        0.01540000       1.57330000      -0.07100000
C       -0.00740000       0.06990000       0.05940000
N        1.24880000      -0.63110000      -0.23110000
C        0.71110000      -0.65650000       1.14840000
C        1.44220000       0.08080000       2.23820000
C        2.14570000      -0.57520000       3.36240000
C        2.82780000      -1.87480000       2.94030000
C        3.54790000      -1.03040000       1.85930000
N        2.91180000       0.25200000       2.34030000
H        0.97750000       1.97510000       0.25570000
H       -0.13550000       1.86900000      -1.11450000
H       -0.77960000       2.03250000       0.52710000
H       -0.92470000      -0.40270000      -0.29050000
H        1.06670000      -1.52130000      -0.68690000
H        0.25190000      -1.59130000       1.46740000
H        0.96360000       1.01710000       2.51880000
H        2.01940000      -0.24130000       4.38840000
H        3.50920000      -2.26490000       3.69830000
H        2.17250000      -2.68840000       2.61180000
H        4.62680000      -0.96620000       2.01240000
H        3.34200000      -1.25060000       0.81160000
