14
Properties=species:S:1:pos:R:3 gdb_25433=T pbc="F F F"
O       -0.02190000      -0.03080000      -0.00200000
C        0.00020000       1.18180000       0.00720000
C        1.22810000       1.97810000       0.00000000
C        2.49830000       1.43540000      -0.01810000
N        3.39380000       2.46570000      -0.01990000
C        2.74400000       3.66600000      -0.00340000
C        1.38610000       3.41270000       0.00960000
C        0.36110000       4.45700000       0.02920000
O        0.60330000       5.64540000       0.03610000
H       -0.94570000       1.76350000       0.02190000
H        2.80870000       0.40380000      -0.02950000
H        4.39470000       2.35550000      -0.03180000
H        3.27150000       4.60540000      -0.00190000
H       -0.68880000       4.09500000       0.03780000
