13
Properties=species:S:1:pos:R:3 gdb_42551=T pbc="F F F"
O        0.02250000       0.07090000       0.06450000
C       -0.00120000       1.26230000       0.11600000
C       -1.06460000       2.31380000       0.06120000
C       -0.47290000       3.55030000       0.66510000
C        0.93730000       3.26560000       1.18720000
C        1.15090000       2.68610000       2.50730000
N        1.31130000       2.22720000       3.55540000
C        1.04200000       2.37370000      -0.07750000
N       -0.10960000       3.21380000      -0.73290000
H       -2.11550000       2.23010000      -0.18220000
H       -1.09450000       4.40490000       0.90500000
H        1.55040000       4.16360000       1.07030000
H        1.98220000       2.21120000      -0.59580000
