16
Properties=species:S:1:pos:R:3 gdb_44815=T pbc="F F F"
O        0.17040000      -0.00070000       0.34270000
C        0.15770000       1.18710000       0.27570000
O       -0.93990000       2.02920000       0.35920000
C       -0.10320000       3.16220000      -0.01670000
C        0.89910000       3.39230000       1.04880000
C        1.14200000       2.29720000      -0.00980000
C        2.34790000       2.20400000      -0.86780000
C        3.17840000       0.96970000      -0.84500000
N        2.37940000       1.30780000      -2.03500000
H       -0.50180000       3.84870000      -0.74930000
H        1.54610000       4.25650000       0.92580000
H        0.66350000       3.12990000       2.07530000
H        2.84430000       3.15690000      -1.04040000
H        4.25420000       1.04280000      -0.97530000
H        2.83890000       0.15320000      -0.21490000
H        1.54380000       0.72680000      -2.05370000
