11
Properties=species:S:1:pos:R:3 gdb_130851=T pbc="F F F"
O       -0.02450000      -0.05970000      -0.00110000
C       -0.01990000       1.14820000       0.00940000
C        1.21890000       1.93700000       0.00250000
C        1.38340000       3.29900000       0.01260000
O        2.68830000       3.61240000       0.00040000
N        3.43180000       2.43420000      -0.01790000
C        2.56220000       1.46000000      -0.01620000
C        0.44230000       4.35630000       0.03210000
N       -0.35120000       5.19830000       0.04810000
H       -0.95710000       1.73990000       0.02470000
H        2.89670000       0.43310000      -0.02870000
