19
Properties=species:S:1:pos:R:3 gdb_14132=T pbc="F F F"
C       -0.11150000       1.50400000       0.38430000
N       -0.04170000       0.09370000       0.02190000
C        0.89460000      -0.64510000       0.85260000
C       -1.33220000      -0.49420000      -0.10920000
C       -2.29200000      -0.86900000       1.02300000
C       -1.84590000      -1.90350000       0.02690000
O       -2.63050000      -1.82450000      -1.16470000
C       -2.12270000      -0.48580000      -1.41980000
H        0.88400000       1.95240000       0.30620000
H       -0.77560000       2.03180000      -0.30670000
H       -0.48550000       1.66970000       1.41100000
H        0.63730000      -0.64110000       1.92850000
H        0.95030000      -1.68330000       0.51550000
H        1.89050000      -0.20100000       0.75410000
H       -1.82470000      -0.94320000       2.00060000
H       -3.32890000      -0.54310000       1.02610000
H       -1.37990000      -2.85280000       0.26590000
H       -2.92820000       0.24810000      -1.53940000
H       -1.46670000      -0.47960000      -2.29690000
