14
Properties=species:S:1:pos:R:3 gdb_133686=T pbc="F F F"
O        0.08960000       1.51670000       0.01660000
C        0.03610000       0.12130000       0.00080000
C        0.69660000      -0.46310000      -1.26000000
C       -0.10150000      -0.19410000      -2.52400000
F       -0.17950000       1.10490000      -2.81610000
F        0.46270000      -0.81440000      -3.57340000
F       -1.35800000      -0.66200000      -2.41020000
C        0.69170000      -0.45130000       1.24550000
O        1.14730000       0.26380000       2.10250000
H        0.50680000       1.75510000       0.86000000
H       -1.01150000      -0.23120000       0.02010000
H        1.69440000      -0.03540000      -1.38850000
H        0.79040000      -1.55070000      -1.17350000
H        0.71760000      -1.55710000       1.32780000
