17
Properties=species:S:1:pos:R:3 gdb_52429=T pbc="F F F"
N       -0.41190000       0.75700000      -1.34170000
C       -0.55570000      -0.44350000      -0.98550000
O       -1.00260000      -0.72100000       0.26080000
C       -1.25620000      -2.08210000       0.57260000
C       -2.67020000      -2.50040000       0.20990000
O       -2.75980000      -2.56500000      -1.20770000
C       -4.02360000      -2.93530000      -1.69330000
C       -5.07510000      -1.93470000      -1.42200000
N       -5.90080000      -1.15860000      -1.19800000
H       -0.04690000       0.79500000      -2.29100000
H       -0.34130000      -1.33880000      -1.58170000
H       -0.53470000      -2.74050000       0.07130000
H       -1.11930000      -2.17930000       1.65310000
H       -2.88680000      -3.48650000       0.65160000
H       -3.38840000      -1.77250000       0.61110000
H       -3.92470000      -3.05680000      -2.77580000
H       -4.35390000      -3.89850000      -1.27360000
