19
Properties=species:S:1:pos:R:3 gdb_9384=T pbc="F F F"
C       -0.05460000       1.49590000       0.06090000
C       -0.03220000      -0.03010000      -0.05570000
C        0.78220000      -0.50560000      -1.25020000
O        0.74290000      -1.92560000      -1.27630000
C        1.39920000      -2.50970000      -2.38320000
C        2.91090000      -2.67110000      -2.16300000
C        0.76960000      -3.82170000      -2.62220000
N        0.30230000      -4.85650000      -2.83240000
H        0.95520000       1.90340000       0.18180000
H       -0.49540000       1.95930000      -0.82850000
H       -0.64460000       1.81200000       0.92550000
H        0.39010000      -0.47590000       0.85180000
H       -1.05060000      -0.42210000      -0.15240000
H        0.36480000      -0.10190000      -2.18790000
H        1.81920000      -0.14260000      -1.17090000
H        1.22630000      -1.90350000      -3.28750000
H        3.37480000      -3.15720000      -3.02550000
H        3.37530000      -1.69120000      -2.02810000
H        3.09490000      -3.27690000      -1.27300000
