24
Properties=species:S:1:pos:R:3 gdb_60287=T pbc="F F F"
C       -0.17480000       1.54490000       0.00290000
C       -0.03920000       0.02380000       0.01570000
C        0.71830000      -0.49690000       1.22970000
O       -1.34240000      -0.58510000       0.05370000
C       -1.97090000      -0.75890000      -1.12400000
N       -3.16700000      -1.14570000      -1.17180000
C       -3.75830000      -1.35320000      -2.48710000
C       -4.15350000      -2.82790000      -2.63240000
C       -4.97430000      -0.43140000      -2.63820000
H        0.81200000       2.01810000      -0.01690000
H       -0.73270000       1.88270000      -0.87560000
H       -0.70660000       1.88460000       0.89690000
H        0.47170000      -0.30610000      -0.90070000
H        0.20640000      -0.20420000       2.15130000
H        0.78260000      -1.58760000       1.20450000
H        1.73200000      -0.08640000       1.25100000
H       -1.34410000      -0.55530000      -2.00840000
H       -3.03640000      -1.10880000      -3.28880000
H       -4.86110000      -3.10900000      -1.84620000
H       -4.62180000      -3.00990000      -3.60530000
H       -3.27680000      -3.47640000      -2.54440000
H       -4.67970000       0.61880000      -2.55200000
H       -5.45350000      -0.57670000      -3.61200000
H       -5.70770000      -0.64130000      -1.85350000
