19
Properties=species:S:1:pos:R:3 gdb_102886=T pbc="F F F"
C        0.62550000      -0.35100000       1.50100000
C        0.00360000      -0.10560000       0.12430000
C       -1.43980000      -0.65660000      -0.00890000
N       -2.11750000      -0.34560000      -1.27690000
C       -2.35090000       1.07090000      -1.52010000
C       -3.17780000       1.25870000      -2.71710000
N       -3.80620000       1.41790000      -3.67280000
C       -1.46200000      -2.10890000       0.17850000
C       -1.44210000      -3.30310000       0.30990000
H        1.63570000       0.06520000       1.55100000
H        0.03210000       0.12020000       2.29250000
H        0.68610000      -1.42050000       1.71970000
H       -0.01820000       0.97160000      -0.07680000
H        0.62010000      -0.56460000      -0.65810000
H       -2.04950000      -0.19910000       0.78520000
H       -1.62230000      -0.76990000      -2.05410000
H       -2.89340000       1.48610000      -0.66100000
H       -1.44570000       1.68940000      -1.64510000
H       -1.44600000      -4.35810000       0.43330000
