18
Properties=species:S:1:pos:R:3 gdb_51910=T pbc="F F F"
O        0.37080000       0.27720000      -0.43520000
C        0.47670000       1.45360000      -0.28460000
O        1.35420000       1.96730000       0.63840000
C        1.56150000       3.32520000       0.68410000
N        1.27710000       4.09420000      -0.26490000
C        1.52150000       5.52820000      -0.15420000
C        2.06090000       6.06760000       1.15300000
C        3.54320000       6.02650000       1.44690000
C        2.87010000       7.33960000       1.14260000
H       -0.08500000       2.23580000      -0.81060000
H        2.02020000       3.58390000       1.63890000
H        2.20760000       5.79400000      -0.96970000
H        0.57400000       6.02650000      -0.39800000
H        1.39880000       5.93680000       2.00560000
H        3.86450000       5.83570000       2.46490000
H        4.19630000       5.60490000       0.68950000
H        3.07190000       7.80310000       0.18230000
H        2.72520000       8.04490000       1.95290000
