18
Properties=species:S:1:pos:R:3 gdb_13532=T pbc="F F F"
C        0.00060000       1.47560000      -0.16730000
C        0.00190000      -0.05370000       0.01860000
C        0.74810000      -0.45120000       1.21710000
C        1.34060000      -0.79860000       2.20530000
C       -1.41450000      -0.62060000       0.07010000
C       -2.06320000      -1.15670000      -1.19020000
C       -1.61560000      -2.10310000      -0.11470000
O       -0.50670000      -2.90360000      -0.40560000
H        1.02080000       1.86220000      -0.23640000
H       -0.53730000       1.73900000      -1.08270000
H       -0.49240000       1.96840000       0.67600000
H        0.50850000      -0.50550000      -0.84240000
H        1.87390000      -1.09030000       3.07610000
H       -2.06100000      -0.12970000       0.79280000
H       -3.12550000      -1.00190000      -1.34140000
H       -1.46760000      -1.14890000      -2.09720000
H       -2.38460000      -2.58800000       0.48610000
H        0.07030000      -2.88950000       0.36800000
