23
Properties=species:S:1:pos:R:3 gdb_65560=T pbc="F F F"
C       -0.14600000       1.51570000       0.15250000
C       -0.02790000      -0.00560000       0.01850000
C       -1.40410000      -0.68050000      -0.04600000
C       -2.22340000      -0.30550000      -1.25850000
C       -3.69130000      -0.30310000      -1.24460000
O       -2.96010000       0.92300000      -1.20510000
C        0.99500000      -0.42060000      -1.09280000
C        2.07960000      -0.60890000       0.00070000
C        0.95910000      -0.60270000       1.07440000
H        0.84300000       1.98210000       0.21530000
H       -0.67550000       1.95470000      -0.69750000
H       -0.69930000       1.78360000       1.05980000
H       -1.26630000      -1.77080000      -0.05470000
H       -1.98130000      -0.43900000       0.85590000
H       -1.73530000      -0.47470000      -2.22060000
H       -4.24660000      -0.48920000      -2.16310000
H       -4.21710000      -0.56290000      -0.32620000
H        0.72390000      -1.36950000      -1.56720000
H        1.19400000       0.31240000      -1.87940000
H        2.69860000      -1.50650000      -0.06480000
H        2.74410000       0.25490000       0.08360000
H        1.12830000      -0.00880000       1.97710000
H        0.67270000      -1.61490000       1.37670000
