14
Properties=species:S:1:pos:R:3 gdb_29494=T pbc="F F F"
N        0.02920000       1.45640000       0.17220000
C        0.03880000       0.05570000       0.04310000
C       -1.04930000      -0.80770000       0.00020000
N       -0.62160000      -2.13810000      -0.03180000
C        0.73930000      -2.11740000      -0.02180000
C        1.15820000      -0.81200000       0.02860000
O        2.52940000      -0.82620000       0.03500000
C        2.82110000      -2.16530000      -0.01120000
N        1.80820000      -2.98180000      -0.04620000
H        0.74980000       1.89550000      -0.38800000
H       -0.86560000       1.85560000      -0.08260000
H       -2.10120000      -0.57210000       0.00390000
H       -1.21920000      -2.94360000      -0.06100000
H        3.86910000      -2.41860000      -0.01380000
