18
Properties=species:S:1:pos:R:3 gdb_93313=T pbc="F F F"
C       -0.20390000       1.55060000      -0.09450000
C        0.04720000       0.04960000      -0.01960000
C        0.94030000      -0.50590000      -1.15120000
N        1.43140000      -1.74680000      -0.58080000
C        1.38490000      -1.81910000       0.78230000
O        1.76840000      -2.73190000       1.47340000
C        0.74850000      -0.48110000       1.26430000
C        1.79820000       0.39100000       1.77570000
C        2.67410000       1.10840000       2.18040000
H        0.72900000       2.11240000       0.00270000
H       -0.66870000       1.81530000      -1.05030000
H       -0.87610000       1.87700000       0.70480000
H       -0.91120000      -0.47940000      -0.07980000
H        0.37160000      -0.68440000      -2.06930000
H        1.75880000       0.18960000      -1.38700000
H        1.92130000      -2.45270000      -1.10700000
H        0.03290000      -0.70030000       2.06190000
H        3.44710000       1.73180000       2.55660000
