16
Properties=species:S:1:pos:R:3 gdb_84052=T pbc="F F F"
C       -0.10090000       1.57400000       0.08520000
C        0.01860000       0.04300000       0.00890000
C        0.79960000      -0.44770000      -1.19250000
C        1.81530000      -1.25920000      -0.85340000
C        2.71940000      -1.90040000      -1.74000000
N        3.46460000      -2.44730000      -2.43830000
C        1.89570000      -1.38140000       0.64400000
O        2.14320000      -0.11690000       1.28450000
C        0.79090000      -0.57150000       1.17810000
H        0.89020000       2.02200000       0.18830000
H       -0.57570000       1.97630000      -0.81440000
H       -0.70630000       1.86980000       0.94700000
H       -0.99180000      -0.38990000      -0.02000000
H        0.56880000      -0.13850000      -2.20550000
H        2.32750000      -2.25260000       1.12470000
H        0.29340000      -0.78690000       2.11950000
