15
Properties=species:S:1:pos:R:3 gdb_24060=T pbc="F F F"
C       -0.04210000      -1.13330000       0.08500000
C        0.01750000       0.06170000      -0.01120000
C        0.05180000       1.50830000      -0.14270000
O        1.31900000       1.99160000       0.34180000
C        1.54060000       3.30130000       0.17510000
C        2.68190000       3.97890000      -0.11460000
C        2.32250000       5.36940000      -0.06410000
C        1.00260000       5.42200000       0.23640000
O        0.50440000       4.15210000       0.39420000
H       -0.09020000      -2.19070000       0.17260000
H       -0.07400000       1.80360000      -1.19320000
H       -0.76180000       1.96600000       0.43130000
H        3.64230000       3.54310000      -0.33250000
H        2.97100000       6.21320000      -0.24060000
H        0.28820000       6.21760000       0.35880000
