18
Properties=species:S:1:pos:R:3 gdb_96928=T pbc="F F F"
C       -0.10700000       1.43350000       0.07330000
N       -0.04860000      -0.02060000       0.13760000
C       -1.09280000      -0.68430000      -0.03270000
O       -2.41830000      -0.27270000      -0.24280000
C       -2.88790000      -1.62990000      -0.01710000
C       -2.34940000      -2.53780000      -1.08400000
C       -2.16340000      -2.14960000      -2.53350000
C       -1.44360000      -2.13460000       0.06690000
O       -0.78280000      -3.07890000       0.80680000
H        0.48090000       1.77730000      -0.78490000
H       -1.12320000       1.83460000      -0.01280000
H        0.36540000       1.84840000       0.96990000
H       -3.76660000      -1.75230000       0.60100000
H       -2.67740000      -3.56410000      -0.91780000
H       -1.93120000      -1.08660000      -2.62730000
H       -1.35050000      -2.72280000      -2.98940000
H       -3.07770000      -2.34570000      -3.10310000
H       -0.42910000      -2.64630000       1.59360000
