17
Properties=species:S:1:pos:R:3 gdb_61783=T pbc="F F F"
C        0.12430000       1.77090000      -0.02250000
C       -0.03850000       0.26340000       0.10220000
O       -1.42790000      -0.03820000       0.16970000
C       -1.86070000      -0.92230000       1.10160000
N       -3.08690000      -1.19700000       1.17220000
C        0.55370000      -0.47570000      -1.12870000
O        1.89650000      -0.11830000      -1.38620000
C        0.41450000      -1.93550000      -0.96620000
N        0.35810000      -3.07590000      -0.78790000
H        1.17600000       2.03060000      -0.15540000
H       -0.43960000       2.14020000      -0.88410000
H       -0.25910000       2.26220000       0.87490000
H        0.47030000      -0.10280000       1.00580000
H       -1.05570000      -1.32060000       1.73250000
H       -3.25220000      -1.86860000       1.91870000
H       -0.02130000      -0.16670000      -2.00790000
H        2.46020000      -0.53230000      -0.72220000
