17
Properties=species:S:1:pos:R:3 gdb_82928=T pbc="F F F"
O        0.02480000       1.40600000       0.11190000
C       -0.07280000       0.02020000       0.04080000
C       -0.53330000      -0.77960000       1.24080000
O       -1.08880000      -0.10130000       2.34360000
C       -2.25270000       0.55070000       1.90370000
C       -3.47200000      -0.28120000       1.53520000
C       -2.53590000       0.25430000       0.47120000
O       -2.91590000       1.30540000      -0.37780000
C       -1.42900000      -0.66320000       0.02340000
H       -0.73470000       1.78050000      -0.35190000
H        0.70470000      -0.45220000      -0.55940000
H       -0.02230000      -1.69200000       1.52480000
H       -2.38620000       1.54220000       2.31830000
H       -3.47510000      -1.34550000       1.74410000
H       -4.42650000       0.22390000       1.63920000
H       -3.44720000       0.93980000      -1.09450000
H       -1.63800000      -1.48870000      -0.65100000
