17
Properties=species:S:1:pos:R:3 gdb_123446=T pbc="F F F"
C        0.24890000       1.13440000       0.69830000
C       -0.02770000      -0.10160000      -0.11730000
C       -1.42550000      -0.54250000      -0.33720000
N       -0.63830000       0.00220000      -1.45560000
N        1.47140000       1.80660000       0.27420000
C        2.12250000       1.77290000      -0.90960000
N        3.17040000       2.57760000      -0.88220000
C        3.10890000       3.09640000       0.37340000
N        2.10080000       2.66460000       1.11460000
H       -0.59380000       1.83410000       0.62560000
H        0.37750000       0.88550000       1.75560000
H        0.74830000      -0.86180000      -0.05960000
H       -1.65030000      -1.60230000      -0.40540000
H       -2.22490000       0.06390000       0.08110000
H       -0.92210000       0.96330000      -1.63530000
H        1.80430000       1.15650000      -1.73630000
H        3.82690000       3.80700000       0.75520000
