21
Properties=species:S:1:pos:R:3 gdb_110335=T pbc="F F F"
C        0.24610000       1.39020000      -0.21070000
C       -0.20320000      -0.03490000       0.13180000
C        0.60690000      -0.63220000       1.26910000
C        0.78060000      -2.07660000       1.57940000
C        2.00790000      -1.22630000       1.11830000
C        2.09240000      -2.09980000      -0.09500000
O        2.92930000      -2.25960000      -0.94060000
C        0.84860000      -2.94360000       0.30710000
C        1.21900000      -4.41000000       0.52660000
H        1.29260000       1.40460000      -0.53160000
H       -0.36030000       1.81110000      -1.01810000
H        0.15420000       2.05370000       0.65640000
H       -1.26180000      -0.02820000       0.42260000
H       -0.13490000      -0.66070000      -0.76310000
H        0.56460000      -0.02000000       2.17020000
H        0.63060000      -2.48140000       2.57300000
H        2.84880000      -0.83370000       1.67740000
H       -0.01830000      -2.87060000      -0.35730000
H        2.07000000      -4.50550000       1.20930000
H        0.37810000      -4.96720000       0.95160000
H        1.49740000      -4.87530000      -0.42280000
