14
Properties=species:S:1:pos:R:3 gdb_129165=T pbc="F F F"
N       -0.20000000       1.33880000      -0.15520000
C       -0.03320000       0.09410000      -0.03320000
N       -1.02660000      -0.87530000      -0.03240000
C       -0.43240000      -2.09540000       0.13410000
C       -1.17370000      -3.38850000       0.20390000
C       -0.26160000      -4.61170000       0.13070000
O       -0.46640000      -5.60960000       0.76580000
N        0.85180000      -2.00320000       0.23140000
O        1.13470000      -0.61130000       0.12320000
H        0.68770000       1.83330000      -0.12290000
H       -2.00600000      -0.66580000      -0.11270000
H       -1.77620000      -3.45520000       1.11550000
H       -1.86970000      -3.44770000      -0.64640000
H        0.58370000      -4.52330000      -0.57920000
