11
Properties=species:S:1:pos:R:3 gdb_132821=T pbc="F F F"
O        0.09290000       1.34060000      -0.07410000
C        0.07010000       0.00500000      -0.04470000
C        0.02360000      -0.70380000      -1.24730000
F        0.00120000      -0.08910000      -2.42260000
C        0.00240000      -2.08520000      -1.13490000
F       -0.04150000      -2.81060000      -2.23630000
N        0.02380000      -2.72250000       0.01900000
C        0.06800000      -1.95080000       1.10200000
N        0.09230000      -0.61970000       1.12990000
H        0.12410000       1.63390000       0.84820000
H        0.08630000      -2.45740000       2.06200000
