24
Properties=species:S:1:pos:R:3 gdb_105080=T pbc="F F F"
C       -0.79280000       0.61950000       1.91360000
C       -0.54140000      -0.72280000       1.21770000
C        0.29570000      -0.68830000      -0.06000000
C        0.22770000       0.47290000      -1.02180000
C        1.45530000       0.28010000      -0.16300000
N        0.58560000      -1.95090000      -0.72670000
C        0.15560000      -3.24660000      -0.22560000
C       -0.39380000      -2.70850000      -1.50600000
C       -1.84950000      -2.31790000      -1.64460000
H        0.13600000       1.09440000       2.24180000
H       -1.32340000       1.32410000       1.26590000
H       -1.41110000       0.46610000       2.80340000
H       -0.04200000      -1.39560000       1.92730000
H       -1.51480000      -1.18040000       1.00550000
H        0.31030000       0.23780000      -2.07680000
H       -0.43150000       1.30400000      -0.79850000
H        1.63250000       0.98750000       0.63850000
H        2.34710000      -0.10390000      -0.64290000
H        0.91230000      -4.02900000      -0.21630000
H       -0.53460000      -3.28830000       0.61450000
H        0.03320000      -3.09300000      -2.43290000
H       -2.31560000      -2.08280000      -0.68560000
H       -1.96400000      -1.44580000      -2.29720000
H       -2.41240000      -3.14280000      -2.09510000
