20
Properties=species:S:1:pos:R:3 gdb_47484=T pbc="F F F"
N       -0.00950000       1.29140000      -0.21210000
C       -0.00590000       0.05130000       0.03980000
C       -1.28930000      -0.74240000       0.12650000
C       -1.23170000      -1.88270000       1.15050000
C        0.04290000      -2.70020000       0.91630000
C        1.23910000      -1.78310000       0.99070000
C        1.94850000      -1.53850000       2.29840000
C        2.62990000      -2.29270000       1.16930000
O        1.16860000      -0.65430000       0.12530000
H        0.95210000       1.63420000      -0.27340000
H       -2.10290000      -0.04250000       0.32160000
H       -1.46520000      -1.17130000      -0.87000000
H       -1.22130000      -1.47380000       2.16810000
H       -2.12370000      -2.51030000       1.06410000
H        0.14950000      -3.49760000       1.65790000
H        0.00550000      -3.17640000      -0.07250000
H        2.28790000      -0.52790000       2.49280000
H        1.62710000      -2.09100000       3.17510000
H        2.77450000      -3.36310000       1.26800000
H        3.41210000      -1.77380000       0.62740000
