17
Properties=species:S:1:pos:R:3 gdb_76186=T pbc="F F F"
C       -0.06100000       1.58430000       0.21870000
C       -0.00730000       0.09410000      -0.00560000
O       -1.19950000      -0.50350000      -0.44940000
C        1.26050000      -0.58580000      -0.45990000
O        2.45780000       0.09720000      -0.56210000
C        0.73520000      -0.78500000       0.98790000
O        1.51610000      -0.15420000       1.95120000
C        0.24630000      -2.11040000       1.40760000
O        0.59140000      -2.57800000       2.47470000
H        0.90340000       1.97100000       0.54840000
H       -0.32610000       2.08730000      -0.71830000
H       -0.81670000       1.82970000       0.96960000
H       -1.31740000      -0.26790000      -1.37740000
H        1.15400000      -1.41400000      -1.15740000
H        2.78040000       0.21990000       0.34490000
H        1.61590000      -0.82620000       2.64930000
H       -0.41450000      -2.64600000       0.70750000
