18
Properties=species:S:1:pos:R:3 gdb_12369=T pbc="F F F"
C       -0.03320000       1.53070000      -0.02970000
C        0.04390000       0.01450000       0.02940000
O        0.77750000      -0.42820000      -1.11580000
C        0.68300000      -1.82650000      -1.30250000
C        0.94360000      -2.60240000      -0.04120000
C        0.97240000      -2.00860000       1.15030000
C        0.74150000      -0.52210000       1.29130000
O        1.96780000       0.15780000       1.55750000
H        0.96600000       1.96520000       0.03970000
H       -0.49730000       1.84730000      -0.96720000
H       -0.62930000       1.91320000       0.80450000
H       -0.97360000      -0.41180000      -0.00660000
H       -0.31050000      -2.09500000      -1.70970000
H        1.41850000      -2.08680000      -2.07290000
H        1.10680000      -3.67200000      -0.14810000
H        1.20220000      -2.56650000       2.05340000
H        0.10920000      -0.31790000       2.16350000
H        2.53390000      -0.01320000       0.79470000
