22
Properties=species:S:1:pos:R:3 gdb_123193=T pbc="F F F"
C       -0.04990000       1.52340000       0.07750000
C        0.00370000      -0.00450000       0.00170000
C        0.71750000      -0.51950000      -1.25300000
C        0.77120000      -2.04880000      -1.32910000
C        1.48170000      -2.54640000      -2.57810000
O        1.48190000      -3.96700000      -2.56110000
C        2.12090000      -4.51560000      -3.68280000
C        2.08290000      -5.97910000      -3.59650000
N        2.06960000      -7.13280000      -3.55760000
H        0.95690000       1.95560000       0.08740000
H       -0.58130000       1.94480000      -0.78310000
H       -0.56460000       1.85970000       0.98280000
H        0.50990000      -0.39950000       0.89220000
H       -1.01610000      -0.41020000       0.02860000
H        0.21100000      -0.12430000      -2.14480000
H        1.73850000      -0.11360000      -1.28020000
H        1.28660000      -2.45360000      -0.45000000
H       -0.24340000      -2.46420000      -1.31610000
H        0.97370000      -2.18160000      -3.48700000
H        2.51860000      -2.17090000      -2.61240000
H        1.63210000      -4.20840000      -4.62270000
H        3.17470000      -4.19690000      -3.74970000
