15
Properties=species:S:1:pos:R:3 gdb_21034=T pbc="F F F"
C       -0.06180000       1.42630000      -0.07460000
N        0.00070000      -0.01490000      -0.00460000
N       -0.01720000      -0.79450000      -1.13540000
C        0.05650000      -2.01950000      -0.64630000
C        0.06800000      -3.22870000      -1.51800000
N        0.12130000      -2.08970000       0.72340000
C        0.08320000      -0.82170000       1.06610000
O        0.11810000      -0.32100000       2.30830000
H        0.78740000       1.81480000      -0.64320000
H       -0.98850000       1.74210000      -0.56140000
H       -0.03130000       1.82280000       0.94090000
H        0.98230000      -3.81040000      -1.36270000
H       -0.77660000      -3.88440000      -1.28320000
H        0.00810000      -2.93360000      -2.56680000
H        0.17640000      -1.07660000       2.90640000
