14
Properties=species:S:1:pos:R:3 gdb_26572=T pbc="F F F"
O        0.20500000       1.35650000       0.01480000
C        0.06280000       0.01230000       0.00840000
C       -1.11750000      -0.65860000      -0.02180000
O       -2.30120000       0.00350000      -0.04940000
C       -1.18290000      -2.10660000      -0.02640000
O       -2.30270000      -2.64250000      -0.05490000
C        0.10360000      -2.77080000       0.00380000
C        1.25570000      -2.05060000       0.03350000
N        1.24120000      -0.68410000       0.03590000
H       -0.68320000       1.73660000      -0.00760000
H       -2.94790000      -0.73400000      -0.06690000
H        0.13590000      -3.85250000       0.00240000
H        2.23920000      -2.50190000       0.05680000
H        2.09720000      -0.15340000       0.05770000
