19
Properties=species:S:1:pos:R:3 gdb_56775=T pbc="F F F"
O        0.14870000       1.55920000      -0.06930000
C        0.06870000       0.13590000       0.02970000
C        0.55510000      -0.50660000      -1.19730000
C        1.00630000      -1.00500000      -2.19430000
C        0.79150000      -0.39560000       1.24480000
C        0.34620000      -1.63530000       1.96730000
C        0.38000000      -0.33180000       2.71860000
C        1.82020000       0.00370000       3.12190000
C        2.24300000      -0.06140000       1.61590000
H        0.97760000       1.77200000      -0.51050000
H       -1.00110000      -0.08170000       0.14610000
H        1.38560000      -1.45310000      -3.07940000
H       -0.64470000      -1.99380000       1.70440000
H        1.05790000      -2.42660000       2.19390000
H       -0.51510000       0.09690000       3.15330000
H        1.92910000       1.00750000       3.53700000
H        2.30240000      -0.70960000       3.79830000
H        2.99710000      -0.80300000       1.33500000
H        2.55510000       0.91750000       1.24440000
