23
Properties=species:S:1:pos:R:3 gdb_106379=T pbc="F F F"
C        0.12890000       1.54600000      -0.03420000
C       -0.03940000       0.02310000      -0.00800000
C       -1.47490000      -0.47030000      -0.03210000
C       -2.57720000      -0.01120000       1.00060000
C       -3.53380000      -0.59520000      -0.09490000
C       -2.50830000      -0.03270000      -1.11320000
C       -3.19010000      -2.09370000       0.01230000
C       -2.35860000      -2.76330000      -1.05470000
C       -1.67670000      -2.00370000       0.05820000
H        1.18810000       1.82040000      -0.01220000
H       -0.30620000       1.98360000      -0.93870000
H       -0.35310000       2.01740000       0.82840000
H        0.49320000      -0.41680000      -0.86220000
H        0.45320000      -0.37910000       0.88820000
H       -2.57870000      -0.49500000       1.98220000
H       -2.65310000       1.07470000       1.10950000
H       -4.58810000      -0.32160000      -0.14340000
H       -2.57840000       1.05460000      -1.18110000
H       -2.45070000      -0.44870000      -2.12030000
H       -3.75360000      -2.70330000       0.70990000
H       -2.29580000      -3.84510000      -0.97960000
H       -2.35010000      -2.40930000      -2.07860000
H       -1.08460000      -2.54630000       0.78790000
