18
Properties=species:S:1:pos:R:3 gdb_93534=T pbc="F F F"
O        0.02400000       1.44470000       0.08020000
C        0.02320000       0.03510000       0.00460000
C        0.80010000      -0.56420000       1.18600000
N        0.67840000      -2.01500000       1.22810000
C       -0.40200000      -2.75080000       0.82620000
O       -0.53880000      -3.92110000       1.12940000
C       -1.37990000      -2.04790000      -0.11400000
C       -1.40040000      -0.52360000      -0.01860000
O       -1.99490000      -0.06170000       1.19700000
H       -0.63710000       1.67280000       0.74670000
H        0.51880000      -0.23250000      -0.93490000
H        1.85580000      -0.29340000       1.09250000
H        0.42030000      -0.10860000       2.11030000
H        1.28680000      -2.51760000       1.85940000
H       -1.10540000      -2.34310000      -1.13490000
H       -2.37160000      -2.47180000       0.06950000
H       -1.93220000      -0.09630000      -0.88060000
H       -2.92580000      -0.30300000       1.19840000
