20
Properties=species:S:1:pos:R:3 gdb_26320=T pbc="F F F"
C        0.06160000       1.31120000      -0.42390000
C        0.04670000      -0.11570000       0.15790000
C        0.66190000      -0.13770000       1.56300000
C       -1.34260000      -0.69670000       0.12840000
C       -2.12370000      -1.05410000       1.17850000
O       -3.33820000      -1.53510000       0.73560000
C       -3.30970000      -1.48030000      -0.61490000
N       -4.48610000      -1.86060000      -1.24770000
C       -2.12190000      -0.97990000      -1.05500000
H        1.08370000       1.70280000      -0.46630000
H       -0.35380000       1.33540000      -1.43550000
H       -0.53720000       1.98560000       0.19780000
H        0.67740000      -0.73840000      -0.49340000
H        0.08540000       0.48910000       2.25280000
H        0.68970000      -1.15270000       1.97090000
H        1.68550000       0.24890000       1.54240000
H       -1.99610000      -1.04920000       2.24640000
H       -4.97600000      -2.59120000      -0.74650000
H       -4.34050000      -2.12630000      -2.21170000
H       -1.82580000      -0.83370000      -2.08190000
