18
Properties=species:S:1:pos:R:3 gdb_41002=T pbc="F F F"
C       -0.14320000       1.54070000       0.07530000
C        1.36440000       1.23860000       0.01010000
N        1.18440000       0.15640000       1.04890000
C        2.29820000      -0.79980000       0.72750000
C        2.12590000      -0.96940000      -0.79220000
O        2.93540000      -0.43070000      -1.89660000
C        1.72670000       0.16950000      -2.45930000
C        1.11800000       0.10670000      -1.04460000
C       -0.00220000       0.01090000       0.02110000
H       -0.50110000       1.96240000       1.01540000
H       -0.59510000       2.01400000      -0.79770000
H        2.21000000       1.92840000       0.05740000
H        3.24170000      -0.33330000       1.02480000
H        2.17860000      -1.73760000       1.27530000
H        1.81230000      -1.98710000      -1.06220000
H        1.91480000       1.15620000      -2.89140000
H        1.26760000      -0.49210000      -3.20470000
H       -0.76140000      -0.76300000       0.14490000
