25
Properties=species:S:1:pos:R:3 gdb_100309=T pbc="F F F"
C       -0.27940000       1.50450000       0.10370000
C        0.00570000       0.00730000      -0.06010000
C        0.79450000      -0.42160000      -1.32570000
C        0.15070000       0.14940000      -2.59950000
C        2.24980000       0.10040000      -1.25950000
O        2.98600000      -0.38510000      -0.14650000
C        0.83630000      -1.95670000      -1.32270000
C       -0.12470000      -2.83560000      -2.08170000
C        1.32840000      -2.78680000      -2.48640000
H        0.63970000       2.09790000       0.13870000
H       -0.90240000       1.89850000      -0.70510000
H       -0.81350000       1.68390000       1.04220000
H        0.57030000      -0.34140000       0.81190000
H       -0.94560000      -0.53970000      -0.05580000
H        0.28020000       1.23470000      -2.64740000
H        0.60080000      -0.26640000      -3.50690000
H       -0.92400000      -0.05340000      -2.63150000
H        2.76090000      -0.14160000      -2.20390000
H        2.25320000       1.19080000      -1.16230000
H        3.15790000      -1.31890000      -0.30080000
H        1.10960000      -2.35150000      -0.34680000
H       -0.49680000      -3.72940000      -1.59310000
H       -0.84130000      -2.36730000      -2.74620000
H        1.57080000      -2.28340000      -3.41620000
H        1.95480000      -3.64800000      -2.27950000
