17
Properties=species:S:1:pos:R:3 gdb_108812=T pbc="F F F"
C       -0.04090000       1.37860000       0.04690000
O       -0.01850000      -0.05350000      -0.03340000
C        0.61540000      -0.54610000      -1.09240000
N        1.19420000       0.09910000      -2.02830000
C        1.73440000      -0.92110000      -2.93880000
C        3.24470000      -0.79520000      -3.14710000
C        1.35180000      -2.28440000      -2.32560000
O        1.59680000      -3.39990000      -2.71000000
N        0.64390000      -1.93350000      -1.18170000
H        0.97680000       1.77370000       0.09320000
H       -0.54480000       1.80110000      -0.82580000
H       -0.58820000       1.61210000       0.95990000
H        1.23270000      -0.84070000      -3.91240000
H        3.77160000      -0.84610000      -2.18960000
H        3.60010000      -1.60890000      -3.78480000
H        3.48030000       0.16220000      -3.61750000
H        0.25630000      -2.57670000      -0.51070000
