16
Properties=species:S:1:pos:R:3 gdb_32451=T pbc="F F F"
C       -0.07090000       1.32150000      -0.05070000
O       -0.06890000      -0.08840000       0.04200000
C        0.60380000      -0.59770000       1.11190000
C        1.29950000       0.02210000       2.12530000
N        1.81270000      -0.99240000       2.92770000
C        1.42420000      -2.20840000       2.44120000
O        1.80040000      -3.34140000       3.09010000
C        0.67870000      -2.00660000       1.30850000
O        0.13370000      -3.00050000       0.53260000
H        0.95160000       1.71320000      -0.14230000
H       -0.64120000       1.58190000      -0.94410000
H       -0.54470000       1.77500000       0.83080000
H        1.49310000       1.05720000       2.33870000
H        2.28650000      -0.86640000       3.80330000
H        1.43960000      -4.08610000       2.59660000
H       -0.30660000      -2.57110000      -0.20830000
