21
Properties=species:S:1:pos:R:3 gdb_70815=T pbc="F F F"
C       -0.02670000       1.45880000      -0.03150000
C        0.01900000      -0.04410000      -0.06510000
C        0.57520000      -0.97040000      -1.16940000
C        0.06930000      -1.95520000      -0.09350000
C        0.09240000      -3.45930000      -0.10740000
C        0.51430000      -1.00820000       1.07650000
C       -0.86930000      -1.04230000       1.76200000
C       -1.16020000      -1.02010000       0.24780000
O       -2.37330000      -0.94800000      -0.41550000
H        0.97850000       1.88630000      -0.11730000
H       -0.62780000       1.84780000      -0.86060000
H       -0.46870000       1.82630000       0.90120000
H        0.03880000      -0.96860000      -2.12410000
H        1.65800000      -0.93960000      -1.33730000
H        1.11440000      -3.84030000      -0.21310000
H       -0.32270000      -3.87780000       0.81700000
H       -0.49300000      -3.85330000      -0.94650000
H        1.50110000      -0.99220000       1.53680000
H       -1.12570000      -1.95550000       2.31010000
H       -1.16120000      -0.15750000       2.33620000
H       -2.89090000      -1.73010000      -0.19520000
