14
Properties=species:S:1:pos:R:3 gdb_127815=T pbc="F F F"
C       -0.40280000       1.35390000      -0.01660000
N       -0.02060000      -0.05380000       0.01060000
N        0.02040000      -0.67760000      -1.17670000
N        0.32330000      -1.86350000      -1.33100000
O        0.66180000      -2.65150000      -0.14930000
C        0.65080000      -2.11250000       1.09840000
N        0.94070000      -2.77530000       2.13420000
C        0.27610000      -0.67440000       1.21880000
N        0.21370000      -0.01280000       2.30020000
H        0.39910000       1.96480000       0.40430000
H       -0.58570000       1.62120000      -1.05590000
H       -1.30140000       1.50660000       0.58560000
H        1.17630000      -3.74130000       1.90400000
H        0.46340000      -0.63180000       3.07310000
