19
Properties=species:S:1:pos:R:3 gdb_117489=T pbc="F F F"
C        0.08210000       1.51670000      -0.19630000
C        0.00600000       0.00520000      -0.08980000
O        0.70460000      -0.54570000      -1.21600000
C        0.75290000      -1.90190000      -1.30620000
N        0.20660000      -2.63240000      -0.43690000
C        0.22850000      -4.08500000      -0.48550000
C        1.52490000      -2.33850000      -2.54840000
N        2.00180000      -1.31690000      -3.30320000
O        1.68590000      -3.51420000      -2.81780000
H        1.12090000       1.85960000      -0.18130000
H       -0.38490000       1.86920000      -1.12070000
H       -0.44170000       1.97450000       0.64800000
H        0.46670000      -0.36770000       0.83090000
H       -1.02700000      -0.35800000      -0.10050000
H       -0.24060000      -4.47280000      -1.39510000
H        1.24850000      -4.48150000      -0.46730000
H       -0.31570000      -4.46300000       0.38450000
H        1.83950000      -0.36290000      -3.03410000
H        2.52010000      -1.53770000      -4.13690000
