13
Properties=species:S:1:pos:R:3 gdb_127766=T pbc="F F F"
C       -0.01110000       1.44100000      -0.03620000
N       -0.00580000      -0.00230000       0.07370000
N       -0.04440000      -0.77620000      -1.05980000
N       -0.03140000      -2.05400000      -0.73470000
C        0.01600000      -2.07480000       0.60360000
C        0.03340000      -0.82160000       1.14550000
N        0.08200000      -0.87680000       2.52280000
C        0.09090000      -2.16340000       2.72760000
O        0.05320000      -2.97960000       1.62260000
H        0.89840000       1.86120000       0.40130000
H       -0.05460000       1.68140000      -1.09840000
H       -0.88250000       1.85970000       0.47400000
H        0.12510000      -2.67050000       3.67930000
