20
Properties=species:S:1:pos:R:3 gdb_11789=T pbc="F F F"
C        0.05310000       1.54510000       0.05470000
C       -0.07620000       0.02250000      -0.06950000
C        0.72810000      -0.55230000      -1.20650000
C        2.27640000      -0.46790000      -1.34930000
C        1.98910000      -1.52680000      -2.45770000
C        0.87240000      -2.06870000      -1.51310000
C        1.14010000      -0.68370000      -3.41590000
O        0.26950000      -0.02250000      -2.47370000
H        1.08810000       1.83930000       0.25910000
H       -0.25720000       2.03290000      -0.87260000
H       -0.56870000       1.92510000       0.87060000
H        0.24420000      -0.46320000       0.85990000
H       -1.12750000      -0.25110000      -0.22250000
H        2.70250000       0.49330000      -1.64780000
H        2.81120000      -0.88450000      -0.49370000
H        2.76330000      -2.16130000      -2.88700000
H        1.26850000      -2.64310000      -0.67350000
H        0.00990000      -2.57040000      -1.96000000
H        1.72120000       0.05660000      -3.97940000
H        0.54950000      -1.28270000      -4.11970000
