22
Properties=species:S:1:pos:R:3 gdb_7663=T pbc="F F F"
C       -0.33760000       1.48240000       0.89770000
C       -0.05590000       0.03780000       0.50200000
C        1.23000000      -0.37640000      -0.29240000
C        2.01980000      -0.15740000       1.03260000
C        0.73590000      -0.94490000       1.43110000
C        0.97410000      -1.86590000       0.16920000
C       -0.20730000      -2.64610000      -0.42690000
C        2.15970000      -2.84200000       0.18710000
H        0.51750000       2.01510000       1.31890000
H       -0.67980000       2.05020000       0.02480000
H       -1.14340000       1.51730000       1.64000000
H       -0.98090000      -0.37430000       0.10090000
H        1.51880000      -0.04370000      -1.29310000
H        2.98180000      -0.65140000       1.14540000
H        2.09490000       0.86750000       1.39220000
H        0.45030000      -1.27330000       2.43420000
H       -1.14070000      -2.09070000      -0.51200000
H        0.05120000      -3.00260000      -1.43080000
H       -0.41190000      -3.53410000       0.18230000
H        1.90610000      -3.72680000       0.78250000
H        2.36990000      -3.19310000      -0.82990000
H        3.08740000      -2.43580000       0.58840000
