18
Properties=species:S:1:pos:R:3 gdb_77857=T pbc="F F F"
C       -0.51030000       1.46960000      -0.01320000
C       -0.05150000       0.02380000       0.00240000
C        0.96470000      -0.51900000      -1.05770000
O        1.62490000       0.36550000      -1.93000000
C        1.81310000      -0.97900000       0.11510000
C        2.18100000       0.11060000       1.05310000
C        2.55000000       1.46230000       0.72820000
C        2.96120000       2.58280000       0.57970000
N        0.81400000      -0.46810000       1.14720000
H        0.30460000       2.16110000      -0.22180000
H       -1.28420000       1.60270000      -0.77820000
H       -0.95210000       1.73180000       0.95360000
H       -0.92820000      -0.63140000       0.02230000
H        0.54650000      -1.37370000      -1.60520000
H        1.01650000       0.60410000      -2.63690000
H        2.27360000      -1.95830000       0.19960000
H        2.75470000      -0.26030000       1.90190000
H        3.30320000       3.57320000       0.40760000
