18
Properties=species:S:1:pos:R:3 gdb_77354=T pbc="F F F"
C       -0.49860000       1.35850000      -0.02080000
C        0.07800000      -0.05250000       0.02730000
C        0.94740000      -0.52390000      -1.17700000
N        1.92260000      -1.48410000      -0.66470000
C        2.14640000      -1.22000000       0.75300000
C        1.02960000      -0.27740000       1.21450000
O        0.91830000       0.22460000       2.30080000
C        0.08010000      -1.13940000      -2.24890000
O        0.02130000      -2.32590000      -2.45720000
H        0.28180000       2.09140000      -0.25080000
H       -1.28480000       1.45050000      -0.77550000
H       -0.92050000       1.61590000       0.95420000
H       -0.73390000      -0.78240000       0.17170000
H        1.44860000       0.35660000      -1.61030000
H        1.57000000      -2.41920000      -0.83760000
H        2.14990000      -2.13270000       1.35790000
H        3.10850000      -0.71930000       0.93210000
H       -0.53970000      -0.42000000      -2.82510000
