19
Properties=species:S:1:pos:R:3 gdb_89927=T pbc="F F F"
C       -0.51130000       1.38580000      -0.07020000
C        0.05260000      -0.02820000      -0.02950000
C        1.34680000      -0.29640000      -0.86940000
C        2.11980000      -0.59360000       0.44040000
N        2.58510000       0.65630000       1.11040000
C        1.49940000       0.57100000       2.12520000
C        0.78850000      -0.49750000       1.27230000
C        3.02360000      -1.72260000       0.49930000
N        3.75450000      -2.61840000       0.55250000
H        0.26320000       2.13130000       0.13340000
H       -0.92320000       1.60080000      -1.06200000
H       -1.31770000       1.51750000       0.65960000
H       -0.73730000      -0.73880000      -0.28800000
H        1.26360000      -1.16440000      -1.52740000
H        1.75130000       0.55090000      -1.42650000
H        3.52820000       0.60910000       1.47880000
H        1.82110000       0.16460000       3.09220000
H        0.97800000       1.51760000       2.29820000
H        0.35590000      -1.35110000       1.79020000
