17
Properties=species:S:1:pos:R:3 gdb_69062=T pbc="F F F"
O       -0.09600000       1.44400000       0.07600000
C       -0.03130000       0.07050000      -0.00320000
C       -0.25170000      -0.86510000       1.16770000
C       -1.14340000      -0.94870000      -0.05160000
C       -2.64120000      -0.88370000      -0.07070000
C       -3.27270000      -2.18790000       0.38750000
O       -4.13880000      -2.26580000       1.21940000
O       -0.48360000      -1.70700000      -1.07590000
C        0.57280000      -0.70890000      -1.16950000
H        0.55560000       1.74730000       0.71770000
H        0.44460000      -1.66850000       1.39440000
H       -0.71280000      -0.38460000       2.02600000
H       -3.00170000      -0.07320000       0.56820000
H       -2.96950000      -0.68890000      -1.10100000
H       -2.86860000      -3.09510000      -0.11350000
H        0.50890000      -0.16540000      -2.11850000
H        1.57140000      -1.14360000      -1.04610000
