15
Properties=species:S:1:pos:R:3 gdb_7261=T pbc="F F F"
C        0.13130000       0.97250000      -0.75180000
C       -0.09040000      -0.00130000       0.41460000
O        0.30260000       0.58600000       1.62750000
C       -1.53240000      -0.45610000       0.48660000
N       -2.23120000      -0.24210000       1.51460000
O       -1.93890000      -1.07210000      -0.68280000
C       -2.76730000      -2.16090000      -0.61490000
O       -3.26260000      -2.63210000      -1.58650000
H        1.18000000       1.27820000      -0.75550000
H       -0.10770000       0.50620000      -1.71040000
H       -0.48710000       1.86490000      -0.62000000
H        0.51120000      -0.90700000       0.22760000
H       -0.47280000       0.56600000       2.20800000
H       -3.20150000      -0.54130000       1.44750000
H       -2.87840000      -2.54050000       0.41440000
