16
Properties=species:S:1:pos:R:3 gdb_44311=T pbc="F F F"
O       -0.00170000       0.07310000      -0.21660000
C        0.00990000       1.25730000      -0.03100000
C       -1.19140000       2.24650000       0.05830000
C       -0.43860000       3.57440000       0.24230000
C        0.79750000       3.54930000      -0.65930000
C        1.77560000       3.94180000       0.47450000
C        2.59920000       2.63310000       0.38180000
C        1.13670000       2.23970000       0.14770000
N        0.64860000       3.22160000       1.26020000
H       -1.80300000       2.19720000      -0.84760000
H       -1.82310000       1.99460000       0.91570000
H       -1.02610000       4.47580000       0.42900000
H        0.90160000       3.69840000      -1.73940000
H        2.11860000       4.93560000       0.76710000
H        3.27580000       2.53070000      -0.46860000
H        3.04930000       2.27830000       1.31130000
