14
Properties=species:S:1:pos:R:3 gdb_25278=T pbc="F F F"
O       -0.00760000      -0.04460000       0.00230000
C        0.00450000       1.14790000       0.00920000
O       -1.09930000       1.94450000       0.02920000
C       -0.74440000       3.34760000       0.03190000
C        0.75160000       3.32810000       0.01030000
C        1.89010000       4.08270000      -0.00200000
C        2.98770000       3.15300000      -0.02310000
C        2.48560000       1.87580000      -0.02290000
N        1.11350000       2.00190000      -0.00220000
H       -1.19750000       3.81500000      -0.84860000
H       -1.17200000       3.80510000       0.93020000
H        1.95900000       5.15910000       0.00300000
H        4.03560000       3.41250000      -0.03690000
H        2.95480000       0.90700000      -0.03510000
