18
Properties=species:S:1:pos:R:3 gdb_112419=T pbc="F F F"
C       -0.30980000       1.54220000      -0.13710000
C        0.07880000       0.07860000      -0.03640000
O        1.10310000      -0.21800000      -1.00470000
C        1.94020000      -1.18320000      -0.50870000
O        2.83530000      -1.67150000      -1.13860000
N        1.54820000      -1.46630000       0.78610000
C        0.67550000      -0.42410000       1.30010000
C        1.45290000       0.60570000       2.12200000
O        2.05380000      -0.12060000       3.18470000
H        0.54140000       2.20060000       0.05420000
H       -0.68180000       1.75510000      -1.14240000
H       -1.10560000       1.77550000       0.57720000
H       -0.78930000      -0.54860000      -0.27800000
H        2.24000000      -1.86980000       1.39950000
H       -0.10660000      -0.85010000       1.93720000
H        2.21090000       1.09290000       1.49080000
H        0.77070000       1.38160000       2.50040000
H        2.65770000       0.46220000       3.65350000
