22
Properties=species:S:1:pos:R:3 gdb_80912=T pbc="F F F"
C        0.34010000       1.51130000       0.12390000
N        0.24790000       0.05160000       0.04270000
C       -0.94890000      -0.73230000       0.53110000
C       -0.03260000      -1.97740000       0.39600000
C        0.79560000      -0.86920000       1.12250000
C        2.24090000      -0.89240000       1.52600000
C       -0.46830000      -0.62270000       2.02810000
C       -0.67710000       0.63730000       2.85950000
O       -0.72760000      -1.73700000       2.87470000
H        0.97690000       1.86810000       0.94290000
H        0.78030000       1.88460000      -0.80870000
H       -0.64290000       1.98560000       0.22790000
H       -1.94410000      -0.57320000       0.10920000
H       -0.29690000      -2.86130000       0.96890000
H        0.29770000      -2.17900000      -0.62220000
H        2.87780000      -1.13380000       0.66940000
H        2.56000000       0.07600000       1.92790000
H        2.40000000      -1.64710000       2.30240000
H       -1.70350000       0.64170000       3.25190000
H       -0.00010000       0.62380000       3.72020000
H       -0.53970000       1.57190000       2.32530000
H       -1.50950000      -1.53980000       3.40020000
