13
Properties=species:S:1:pos:R:3 gdb_3303=T pbc="F F F"
N       -0.02490000      -1.20010000      -0.15030000
C       -0.01110000      -0.04660000      -0.07160000
C        0.01190000       1.40610000       0.05620000
C       -0.25050000       2.01930000       1.46750000
C        1.15680000       2.59850000       1.36820000
C        2.15540000       1.54670000       1.11300000
N        1.37910000       2.05230000      -0.03950000
H       -0.63080000       1.83920000      -0.71270000
H       -1.04260000       2.76780000       1.43820000
H       -0.43890000       1.32600000       2.29020000
H        1.43060000       3.61690000       1.62070000
H        3.19720000       1.84500000       1.06020000
H        1.99040000       0.52930000       1.46020000
