17
Properties=species:S:1:pos:R:3 gdb_38890=T pbc="F F F"
C       -0.01000000       1.52890000       0.10930000
C        1.30010000       0.78850000       0.01850000
O        2.14970000       0.79580000       1.15310000
C        2.14030000      -0.48420000       1.74380000
C        2.27180000      -0.59700000       3.29100000
N        0.99340000      -1.37140000       3.27230000
C        0.71520000      -0.93560000       1.98520000
N       -0.33920000      -0.67680000       1.33400000
C       -0.00450000       0.01540000       0.10320000
H       -0.22440000       2.00090000       1.06190000
H       -0.36780000       2.06280000      -0.76470000
H        1.85010000       0.80320000      -0.92030000
H        2.78160000      -1.19180000       1.20450000
H        3.12550000      -1.15080000       3.68700000
H        2.18800000       0.38300000       3.77070000
H        0.30490000      -1.33210000       4.01360000
H       -0.35590000      -0.47970000      -0.79720000
