17
Properties=species:S:1:pos:R:3 gdb_97875=T pbc="F F F"
O        0.29540000       0.85160000       0.79640000
C       -0.07910000       0.14850000      -0.38270000
C       -1.41830000      -0.40240000      -0.22200000
C       -2.52090000      -0.86890000      -0.11160000
C       -3.86780000      -1.42470000       0.03230000
C       -3.90090000      -2.88310000       0.15800000
C       -3.93900000      -4.08090000       0.25360000
C       -3.97020000      -5.53070000       0.39580000
O       -4.51640000      -6.11670000      -0.78020000
H        1.18310000       1.19560000       0.65400000
H       -0.06620000       0.81220000      -1.26280000
H        0.62210000      -0.67490000      -0.59580000
H       -4.35140000      -0.96980000       0.90810000
H       -4.48230000      -1.12510000      -0.82820000
H       -2.94600000      -5.89270000       0.58320000
H       -4.56700000      -5.79230000       1.28500000
H       -4.51650000      -7.07050000      -0.65040000
