16
Properties=species:S:1:pos:R:3 gdb_128796=T pbc="F F F"
C        0.00330000       1.39740000       0.04500000
O        0.01750000      -0.01120000       0.02600000
C        0.63180000      -0.53490000      -1.12860000
C        0.59410000      -2.02410000      -1.04830000
C        0.08190000      -2.82330000      -0.07950000
O        0.24720000      -4.12130000      -0.38240000
N        0.90120000      -4.21580000      -1.61280000
C        1.09460000      -2.97450000      -1.98450000
O        1.70630000      -2.65510000      -3.13750000
H        1.02200000       1.81510000       0.02610000
H       -0.55400000       1.81050000      -0.81020000
H       -0.48860000       1.70500000       0.97030000
H        0.11460000      -0.18620000      -2.03990000
H        1.67450000      -0.18110000      -1.21230000
H       -0.41400000      -2.60670000       0.85250000
H        1.94530000      -3.47940000      -3.58220000
