21
Properties=species:S:1:pos:R:3 gdb_91318=T pbc="F F F"
C        0.38200000       1.44950000      -0.42860000
C        0.06580000       0.00340000      -0.07440000
O       -1.34000000      -0.16440000       0.09150000
C        0.68740000      -1.10570000      -0.99430000
C        1.40970000      -1.71980000       0.22510000
C        2.79210000      -1.07830000       0.54200000
C        2.11570000      -0.23580000       1.66600000
O        2.35730000       1.15120000       1.75020000
C        0.72110000      -0.66880000       1.17590000
H        1.45440000       1.62760000      -0.51500000
H       -0.08780000       1.69990000      -1.38980000
H       -0.01060000       2.12470000       0.33610000
H       -1.76690000       0.16120000      -0.70920000
H       -0.09700000      -1.74750000      -1.40310000
H        1.33430000      -0.76440000      -1.80900000
H        1.32860000      -2.79490000       0.38000000
H        3.57890000      -1.75940000       0.87580000
H        3.18420000      -0.46830000      -0.27770000
H        2.29590000      -0.71500000       2.63970000
H        3.23680000       1.28140000       2.11840000
H       -0.01800000      -0.92110000       1.93560000
