22
Properties=species:S:1:pos:R:3 gdb_88682=T pbc="F F F"
C       -0.14570000       1.53160000      -0.16260000
C        0.00250000       0.03840000       0.02840000
C        1.30540000      -0.65030000      -0.20360000
N        0.74810000      -0.55590000       1.14330000
C        1.41400000       0.28720000       2.09240000
C        0.75400000       0.48170000       3.44500000
C        2.01520000      -0.34540000       3.31680000
C        1.97550000      -1.83960000       3.52610000
O        3.21720000       0.27310000       3.70930000
H        0.79520000       2.06690000      -0.01420000
H       -0.49020000       1.74300000      -1.18050000
H       -0.88490000       1.94680000       0.53100000
H       -0.90320000      -0.52190000      -0.20180000
H        1.34940000      -1.64680000      -0.63600000
H        2.15980000      -0.01680000      -0.44080000
H        1.98360000       1.13890000       1.71860000
H        0.83680000       1.45980000       3.90560000
H       -0.18160000      -0.04050000       3.61320000
H        1.07950000      -2.26760000       3.07300000
H        2.85360000      -2.30740000       3.06930000
H        1.97840000      -2.08380000       4.59580000
H        3.27160000       0.22000000       4.67010000
