21
Properties=species:S:1:pos:R:3 gdb_77502=T pbc="F F F"
C       -0.12590000       1.60950000       0.06420000
C        0.01150000       0.09610000       0.00920000
C        0.84200000      -0.62920000      -1.11730000
C        0.57350000      -0.62450000      -2.59650000
C        2.14310000      -0.17390000      -0.38240000
C        1.16710000      -0.64570000       0.73200000
O        1.33420000      -0.63240000       2.10850000
C        0.87360000      -1.87460000      -0.18600000
O       -0.32760000      -2.59150000      -0.04910000
H        0.80830000       2.14860000      -0.11270000
H       -0.85140000       1.95290000      -0.68170000
H       -0.49990000       1.91660000       1.04680000
H       -0.95920000      -0.37570000       0.17330000
H        0.57480000       0.39460000      -2.99790000
H        1.33320000      -1.19850000      -3.13840000
H       -0.40280000      -1.07130000      -2.81130000
H        3.03330000      -0.78980000      -0.55190000
H        2.39050000       0.88590000      -0.41790000
H        2.19160000      -1.01910000       2.31680000
H        1.72410000      -2.55330000      -0.35040000
H       -0.37540000      -2.91850000       0.85540000
