18
Properties=species:S:1:pos:R:3 gdb_107522=T pbc="F F F"
C        0.05510000       1.32660000       0.29660000
O       -0.01630000       0.01260000      -0.24840000
C       -1.24830000      -0.57150000      -0.12580000
C       -1.78730000      -1.11030000       1.16860000
C       -1.57600000      -2.04750000      -0.00290000
C       -2.73930000      -1.90480000      -0.98880000
C       -2.38180000      -0.37970000      -1.16560000
C       -3.41110000       0.60920000      -0.88040000
N       -4.22820000       1.38730000      -0.62500000
H        1.08370000       1.66640000       0.16280000
H       -0.62220000       2.01640000      -0.22340000
H       -0.19500000       1.32640000       1.36520000
H       -1.03640000      -1.19210000       1.94760000
H       -2.78820000      -0.87100000       1.52000000
H       -0.89860000      -2.88920000       0.05500000
H       -2.60840000      -2.45560000      -1.92120000
H       -3.73470000      -2.10820000      -0.58600000
H       -1.95890000      -0.19440000      -2.15570000
