18
Properties=species:S:1:pos:R:3 gdb_128467=T pbc="F F F"
C        0.16920000       1.28440000      -0.23990000
O        0.03440000      -0.10680000      -0.05800000
C       -1.30230000      -0.56150000       0.09770000
C       -2.05470000      -0.61020000      -1.23990000
C       -1.21640000      -1.91350000       0.74280000
C       -0.10060000      -2.58750000       1.12710000
O       -0.42340000      -3.77210000       1.66870000
N       -1.80520000      -3.91240000       1.65760000
C       -2.25900000      -2.81250000       1.10880000
H        1.23980000       1.50180000      -0.24980000
H       -0.26410000       1.63200000      -1.18840000
H       -0.29940000       1.84760000       0.58200000
H       -1.83770000       0.12660000       0.77540000
H       -2.13450000       0.38550000      -1.68480000
H       -1.53210000      -1.26950000      -1.93810000
H       -3.07050000      -0.99090000      -1.09550000
H        0.94860000      -2.35020000       1.07610000
H       -3.32750000      -2.69270000       0.99330000
