19
Properties=species:S:1:pos:R:3 gdb_55867=T pbc="F F F"
C       -0.19450000       1.41710000       0.34990000
C        0.07720000      -0.04620000       0.10340000
O       -1.04510000      -0.79470000      -0.28230000
C        1.41500000      -0.51120000      -0.43440000
C        1.00020000      -0.83100000       0.98890000
N        1.71130000      -0.18210000       2.05020000
C        1.07870000       0.04510000       3.26250000
N        1.95130000       0.41390000       4.28220000
O       -0.11730000      -0.08020000       3.42890000
H        0.70460000       1.93200000       0.69590000
H       -0.53150000       1.90750000      -0.57160000
H       -0.97200000       1.52390000       1.11070000
H       -1.31970000      -0.48330000      -1.15190000
H        1.41780000      -1.33030000      -1.14420000
H        2.19570000       0.22970000      -0.57260000
H        0.66770000      -1.84870000       1.18170000
H        2.70090000      -0.37840000       2.09160000
H        2.77730000       0.93340000       4.02420000
H        1.46550000       0.79360000       5.08080000
