17
Properties=species:S:1:pos:R:3 gdb_53830=T pbc="F F F"
C        0.04370000       1.34280000       0.33520000
C        0.03580000      -0.16460000       0.38300000
O        1.01810000      -0.85360000       0.47810000
C       -1.37590000      -0.79300000       0.28930000
O       -2.37490000      -0.13120000       0.14840000
O       -1.32090000      -2.12250000       0.39190000
C       -2.55020000      -2.82710000       0.30070000
C       -2.66910000      -3.83140000      -0.80590000
C       -2.46880000      -4.28110000       0.62830000
H        1.07030000       1.70470000       0.39160000
H       -0.43780000       1.69200000      -0.58350000
H       -0.55000000       1.74690000       1.16160000
H       -3.40450000      -2.23010000       0.59090000
H       -3.63870000      -3.96150000      -1.27300000
H       -1.82080000      -3.92490000      -1.47370000
H       -1.49070000      -4.66610000       0.89210000
H       -3.29760000      -4.73040000       1.16320000
