21
Properties=species:S:1:pos:R:3 gdb_111154=T pbc="F F F"
C        0.18680000       1.68410000       0.00840000
C        0.17940000       0.16040000       0.12520000
N        0.64770000      -0.43990000      -1.12770000
C       -0.34600000      -0.64490000      -2.26440000
C        0.67540000      -1.67820000      -2.82080000
C        0.53780000      -1.94700000      -1.29690000
C       -0.98830000      -1.81930000      -1.49530000
C       -2.20420000      -2.01580000      -0.69620000
N       -1.93400000      -2.83990000      -1.90700000
H        1.17660000       2.04100000      -0.28940000
H       -0.53350000       2.02630000      -0.74280000
H       -0.08240000       2.14800000       0.96230000
H        0.88840000      -0.15060000       0.90280000
H       -0.81460000      -0.18150000       0.44660000
H       -0.82120000       0.18970000      -2.78350000
H        0.29080000      -2.44630000      -3.49210000
H        1.63200000      -1.25630000      -3.12870000
H        1.10010000      -2.64240000      -0.67260000
H       -2.17210000      -2.56620000       0.24060000
H       -2.98590000      -1.26080000      -0.74520000
H       -2.50300000      -2.51370000      -2.68520000
