20
Properties=species:S:1:pos:R:3 gdb_9919=T pbc="F F F"
C        0.10510000       1.34850000       0.17380000
O       -0.08460000      -0.03030000      -0.02740000
C        0.71580000      -0.55000000      -1.06510000
C        0.41750000      -2.03860000      -1.20850000
C        1.23270000      -2.70560000      -2.29870000
O        0.95670000      -2.24970000      -3.60250000
C        2.64320000      -3.16920000      -2.01690000
C        1.52280000      -4.17210000      -2.22220000
H        1.14640000       1.58380000       0.44760000
H       -0.15110000       1.93310000      -0.72460000
H       -0.55170000       1.65450000       0.99190000
H        0.49900000      -0.02290000      -2.01130000
H        1.78620000      -0.39200000      -0.84290000
H        0.61560000      -2.52740000      -0.24860000
H       -0.64920000      -2.16550000      -1.42500000
H        1.38530000      -1.39530000      -3.71840000
H        3.36680000      -3.06670000      -2.81800000
H        3.04670000      -3.04050000      -1.01800000
H        1.16030000      -4.72830000      -1.36480000
H        1.50910000      -4.71300000      -3.16100000
