20
Properties=species:S:1:pos:R:3 gdb_58643=T pbc="F F F"
C        0.09000000       1.59670000      -0.01470000
C       -0.01110000       0.07780000       0.08150000
O        0.64390000      -0.30190000       1.28230000
C       -1.43180000      -0.49840000       0.04920000
C       -2.53440000       0.18440000       0.77700000
N       -2.53210000       0.14680000      -0.69450000
C       -1.52980000      -1.99840000      -0.04250000
C       -0.53050000      -2.87500000      -0.66700000
O       -0.62040000      -2.77320000       0.76350000
H        1.14440000       1.87230000       0.06660000
H       -0.27970000       1.97570000      -0.97210000
H       -0.44110000       2.09110000       0.80320000
H        0.52900000      -0.33290000      -0.78950000
H        0.47960000      -1.24850000       1.40370000
H       -3.31540000      -0.40660000       1.24840000
H       -2.31430000       1.12010000       1.27980000
H       -2.22600000       1.04310000      -1.06290000
H       -2.55690000      -2.36170000      -0.01790000
H       -0.84810000      -3.83210000      -1.07640000
H        0.37510000      -2.46420000      -1.10520000
