15
Properties=species:S:1:pos:R:3 gdb_13734=T pbc="F F F"
C       -0.44450000       1.34460000       0.05720000
C        0.01970000      -0.09440000       0.11920000
O        0.34330000      -0.63580000       1.15160000
C        0.05470000      -0.83570000      -1.19010000
C        0.89000000      -2.08470000      -1.26940000
C       -0.60830000      -2.22320000      -1.26770000
C       -1.30720000      -2.78340000      -0.14330000
N       -1.90930000      -3.26490000       0.71850000
H        0.21420000       1.92740000      -0.59740000
H       -1.45050000       1.39780000      -0.37490000
H       -0.44790000       1.77800000       1.05740000
H       -0.06370000      -0.23640000      -2.08610000
H        1.41040000      -2.30410000      -2.19360000
H        1.40010000      -2.35190000      -0.35140000
H       -1.08190000      -2.44590000      -2.21830000
