21
Properties=species:S:1:pos:R:3 gdb_108595=T pbc="F F F"
O        0.09640000       1.36940000      -0.17100000
C       -0.00870000      -0.01350000       0.14080000
C       -1.43330000      -0.50960000       0.11820000
C       -2.42460000       0.12080000       1.09510000
C       -3.56680000      -0.90430000       1.28640000
C       -2.96080000      -2.28200000       0.92250000
C       -1.78450000      -1.99030000      -0.00070000
C       -1.98600000      -1.05690000      -1.17280000
O       -3.25030000      -0.64650000      -1.61340000
H       -0.35170000       1.50730000      -1.01260000
H        0.61250000      -0.62370000      -0.53570000
H        0.41270000      -0.11690000       1.14780000
H       -1.89610000       0.30050000       2.03920000
H       -2.79540000       1.09030000       0.75170000
H       -3.96580000      -0.88880000       2.30460000
H       -4.38630000      -0.66940000       0.60650000
H       -2.58230000      -2.79230000       1.81570000
H       -3.70300000      -2.95070000       0.47110000
H       -1.00740000      -2.74340000      -0.09520000
H       -1.25690000      -1.16680000      -1.97870000
H       -3.68080000      -1.40190000      -2.02760000
