17
Properties=species:S:1:pos:R:3 gdb_26083=T pbc="F F F"
C        0.03120000       1.42530000      -0.21490000
C        0.01420000      -0.08790000       0.07890000
C        0.69120000      -0.39260000       1.33910000
C        1.27310000      -0.60260000       2.36820000
N       -1.35190000      -0.61970000       0.06750000
C       -2.05590000      -0.98890000      -1.06080000
C       -3.31010000      -1.31790000      -0.62120000
N       -3.40160000      -1.15940000       0.74180000
C       -2.21640000      -0.73660000       1.11930000
H        1.06130000       1.78740000      -0.25950000
H       -0.45820000       1.62320000      -1.17190000
H       -0.49860000       1.96880000       0.57080000
H        0.54910000      -0.60470000      -0.72730000
H        1.78460000      -0.80520000       3.27720000
H       -1.59880000      -0.98710000      -2.03700000
H       -4.14730000      -1.66800000      -1.20590000
H       -1.91020000      -0.51460000       2.12970000
