17
Properties=species:S:1:pos:R:3 gdb_58930=T pbc="F F F"
C       -0.06860000       1.61890000       0.12880000
C       -0.06090000       0.09380000       0.03220000
O        0.66940000      -0.49940000       1.10320000
C       -1.44540000      -0.48340000       0.02280000
O       -2.40370000      -0.24610000      -1.04680000
C       -3.14960000      -1.10940000      -0.13700000
C       -1.90710000      -1.95650000       0.27340000
O       -2.09520000      -1.76280000       1.71030000
C       -2.53760000      -0.48800000       1.15170000
H        0.95800000       1.99340000       0.13170000
H       -0.60390000       2.05690000      -0.71940000
H       -0.55510000       1.94280000       1.05450000
H        0.43840000      -0.20430000      -0.90030000
H        0.04360000      -0.83850000       1.75530000
H       -4.16970000      -1.39110000      -0.39290000
H       -1.52140000      -2.90780000      -0.08940000
H       -2.90000000       0.29020000       1.82220000
