17
Properties=species:S:1:pos:R:3 gdb_46931=T pbc="F F F"
N        0.10980000       0.69240000       1.03430000
C        0.09340000      -0.11490000       0.05540000
C        1.25200000      -0.51940000      -0.84020000
O        1.45960000      -1.93260000      -0.83660000
C        0.28150000      -2.68610000      -0.62610000
C       -0.29550000      -2.76060000       0.84100000
C       -1.52710000      -1.98950000       0.35190000
C       -1.01880000      -1.99760000      -1.06560000
N       -1.11290000      -0.75790000      -0.30840000
H        1.04900000       1.07130000       1.16260000
H        1.04080000      -0.17560000      -1.86510000
H        2.18510000      -0.05740000      -0.50820000
H        0.46190000      -3.67090000      -1.05980000
H       -0.52330000      -3.79070000       1.12440000
H        0.29410000      -2.28640000       1.62910000
H       -2.54330000      -2.05860000       0.71800000
H       -1.54190000      -2.07620000      -2.01150000
