16
Properties=species:S:1:pos:R:3 gdb_79598=T pbc="F F F"
O       -0.02270000       1.37070000       0.12550000
C        0.05340000      -0.02200000       0.02640000
C       -0.52190000      -0.74840000       1.22880000
C       -1.30510000      -0.64460000      -0.05790000
C       -1.26150000      -2.18030000      -0.13100000
C        0.09180000      -2.78760000       0.03070000
N       -0.54590000      -2.26160000       1.23320000
C       -2.44840000      -3.03030000      -0.38570000
O       -2.45600000      -4.23180000      -0.26780000
H        0.69780000       1.66980000       0.69080000
H        0.89970000      -0.38400000      -0.55280000
H       -0.66620000      -0.24520000       2.17600000
H       -2.18900000      -0.05970000      -0.27540000
H        0.08950000      -3.87330000       0.01920000
H        0.97430000      -2.32470000      -0.39380000
H       -3.35680000      -2.47370000      -0.70720000
