20
Properties=species:S:1:pos:R:3 gdb_63834=T pbc="F F F"
C       -0.43940000       1.56800000       0.13180000
C       -0.06200000       0.09280000       0.04480000
C       -1.26340000      -0.75760000      -0.37140000
C        1.21750000      -0.24740000      -0.80330000
C        1.87120000      -0.88340000       0.43510000
O        2.67710000       0.07960000       1.18830000
C        1.61170000       0.37270000       2.02540000
N        1.55030000       1.13250000       3.02170000
C        0.64070000      -0.53520000       1.31250000
H        0.40930000       2.18880000       0.43040000
H       -0.79610000       1.92620000      -0.84080000
H       -1.23870000       1.72760000       0.86340000
H       -1.62030000      -0.46130000      -1.36420000
H       -1.01010000      -1.82280000      -0.41180000
H       -2.09190000      -0.63680000       0.33550000
H        1.02680000      -0.95080000      -1.61800000
H        1.77480000       0.60670000      -1.19450000
H        2.36570000      -1.85220000       0.37780000
H        2.44960000       1.58430000       3.19840000
H        0.06500000      -1.23380000       1.91700000
