18
Properties=species:S:1:pos:R:3 gdb_50574=T pbc="F F F"
O       -0.87840000       1.08520000       0.30820000
C        0.25000000       0.72150000       0.10410000
C        1.44400000       1.66050000       0.03720000
C        1.34340000       2.83210000       1.02390000
C        2.68340000       3.54310000       1.14970000
N        3.66240000       2.90890000       2.05460000
C        3.91280000       2.89760000       0.60980000
C        3.79380000       1.55350000      -0.07900000
O        2.59740000       0.87170000       0.25110000
H        0.51400000      -0.34500000      -0.06720000
H        1.46160000       2.06250000      -0.99590000
H        0.56740000       3.51930000       0.67670000
H        1.03550000       2.45920000       2.00510000
H        2.64790000       4.62960000       1.14280000
H        4.23580000       3.61780000       2.50380000
H        4.69790000       3.53820000       0.21180000
H        3.85120000       1.70860000      -1.17080000
H        4.61230000       0.89000000       0.21670000
