14
Properties=species:S:1:pos:R:3 gdb_4553=T pbc="F F F"
C       -0.07490000       1.48240000       0.02360000
N        0.01040000       0.03910000      -0.02690000
C        0.02280000      -0.76400000      -1.18160000
C        0.11490000      -2.04030000      -0.70930000
O        0.16130000      -3.18170000      -1.43150000
N        0.16020000      -2.07460000       0.66520000
C        0.09470000      -0.81050000       1.01650000
O        0.10580000      -0.33880000       2.27720000
H        0.77480000       1.94010000      -0.49370000
H       -1.00100000       1.83320000      -0.44360000
H       -0.06440000       1.79740000       1.06700000
H       -0.03350000      -0.34710000      -2.17050000
H        0.22490000      -3.90110000      -0.79250000
H        0.17020000      -1.11060000       2.85250000
