15
Properties=species:S:1:pos:R:3 gdb_20733=T pbc="F F F"
C       -0.12250000       1.47150000      -0.02730000
C       -0.04190000      -0.02000000       0.03350000
N       -0.08620000      -0.74730000      -1.07800000
N        0.01140000      -2.04330000      -0.65150000
C        0.11380000      -2.12810000       0.68730000
O        0.22100000      -3.30120000       1.33190000
C        0.08480000      -0.84220000       1.18740000
N        0.17420000      -0.58360000       2.58610000
H        0.76960000       1.94170000       0.40290000
H       -0.21450000       1.79470000      -1.06620000
H       -0.98650000       1.85190000       0.53040000
H        0.00090000      -2.79410000      -1.31910000
H        0.27790000      -3.06490000       2.27080000
H       -0.64400000      -0.09590000       2.93820000
H        0.98070000      -0.01210000       2.81890000
