12
Properties=species:S:1:pos:R:3 gdb_130470=T pbc="F F F"
O       -0.06080000       1.94150000       0.01360000
C        1.10520000       2.28850000       0.00400000
C        2.21840000       1.36490000      -0.01180000
C        3.58100000       1.59470000      -0.02390000
N        4.32650000       0.43840000      -0.03740000
C        3.47380000      -0.56840000      -0.03450000
C        2.12890000      -0.07700000      -0.01870000
N        1.03390000      -0.80860000      -0.01190000
N        0.12910000      -1.47410000      -0.00640000
H        1.38880000       3.36190000       0.00700000
H        4.07180000       2.55930000      -0.02360000
H        3.77940000      -1.60620000      -0.04310000
