18
Properties=species:S:1:pos:R:3 gdb_74248=T pbc="F F F"
C       -0.06820000       1.51110000       0.09030000
C       -0.01130000       0.01820000       0.01800000
C        0.07320000      -0.73380000      -1.08360000
C        0.06720000      -2.22600000      -0.76790000
C        1.17830000      -2.95110000      -1.39480000
N        2.05410000      -3.51670000      -1.89420000
C        0.10140000      -2.26520000       0.76910000
C        1.26650000      -1.62450000       1.47160000
C       -0.00700000      -0.83160000       1.25060000
H        0.77220000       1.90720000       0.67310000
H       -0.04420000       1.96540000      -0.90320000
H       -0.98320000       1.84380000       0.59600000
H        0.15990000      -0.36820000      -2.09940000
H       -0.86000000      -2.68950000      -1.13360000
H       -0.42130000      -3.07280000       1.26510000
H        1.47390000      -1.97480000       2.47690000
H        2.14370000      -1.35050000       0.89480000
H       -0.61450000      -0.55140000       2.10450000
