19
Properties=species:S:1:pos:R:3 gdb_53513=T pbc="F F F"
C        0.08100000       1.51710000      -0.06470000
C        0.05160000       0.06250000      -0.01260000
C        0.02400000      -1.14010000       0.02670000
C       -0.02340000      -2.59490000       0.08510000
C       -1.45810000      -3.16590000       0.01050000
O       -2.13450000      -2.75710000      -1.15890000
C       -1.42620000      -4.70620000       0.15040000
C       -2.75010000      -5.31220000       0.15660000
C       -3.84390000      -5.80880000       0.17490000
H        0.91880000       1.87780000      -0.67190000
H       -0.84060000       1.91610000      -0.50280000
H        0.18700000       1.95130000       0.93570000
H        0.56620000      -3.02570000      -0.73880000
H        0.45110000      -2.94960000       1.00990000
H       -2.04590000      -2.75020000       0.83500000
H       -1.63600000      -3.06810000      -1.92310000
H       -0.83000000      -5.12230000      -0.67520000
H       -0.89360000      -4.97220000       1.07280000
H       -4.81210000      -6.24420000       0.18490000
