16
Properties=species:S:1:pos:R:3 gdb_128662=T pbc="F F F"
C       -0.01900000       1.44880000      -0.06780000
O        0.01290000       0.02590000      -0.00160000
C        0.61540000      -0.58430000      -1.03120000
N        1.14340000       0.02390000      -2.08670000
N        1.58440000      -0.98300000      -2.84910000
C        2.40840000      -0.75720000      -4.01150000
N        1.40720000      -2.20530000      -2.33150000
C        0.78180000      -1.97820000      -1.18740000
O        0.37080000      -2.94130000      -0.34110000
H        0.99470000       1.86270000      -0.10120000
H       -0.56380000       1.78790000      -0.95540000
H       -0.53060000       1.77940000       0.83680000
H        3.46730000      -0.66040000      -3.74370000
H        2.28610000      -1.60270000      -4.68960000
H        2.07560000       0.16190000      -4.49550000
H        0.62930000      -3.78940000      -0.72210000
