15
Properties=species:S:1:pos:R:3 gdb_97431=T pbc="F F F"
C       -0.53890000       0.78840000       0.09240000
N        0.67960000       0.01580000      -0.03050000
C        0.75290000      -0.81530000      -0.96310000
O        1.89020000      -1.54890000      -1.13030000
C        1.87770000      -2.49910000      -2.15500000
C        1.06100000      -3.73890000      -1.80360000
O        0.35080000      -3.84170000      -0.84110000
C        1.19580000      -4.83360000      -2.78840000
N        1.31990000      -5.66710000      -3.58020000
H       -0.29930000       1.85620000       0.04280000
H       -1.29290000       0.56400000      -0.67910000
H       -0.98590000       0.60620000       1.07560000
H       -0.02940000      -1.01590000      -1.71030000
H        1.48980000      -2.10100000      -3.10730000
H        2.91510000      -2.79970000      -2.33730000
