15
Properties=species:S:1:pos:R:3 gdb_5690=T pbc="F F F"
C        0.03580000       1.44050000       0.06710000
C        1.53220000       1.88280000      -0.08350000
C        2.16620000       0.54460000       0.08060000
C        1.28730000      -0.47430000      -0.05740000
N       -0.02400000      -0.01220000      -0.29530000
C        2.05250000      -1.68160000      -0.06850000
C        3.35030000      -1.26750000       0.05650000
O        3.44670000       0.09340000       0.12760000
H       -0.27110000       1.58880000       1.11130000
H       -0.63590000       2.01850000      -0.57200000
H        1.72370000       2.31770000      -1.07480000
H        1.80440000       2.63630000       0.66210000
H       -0.74260000      -0.49870000       0.22790000
H        1.71780000      -2.70400000      -0.14780000
H        4.28310000      -1.80200000       0.13120000
