19
Properties=species:S:1:pos:R:3 gdb_65188=T pbc="F F F"
C       -0.19100000       1.56550000      -0.02090000
C       -0.13880000       0.05080000      -0.05390000
C        0.90800000      -0.61160000      -0.88440000
N        1.01050000      -0.62170000       0.58390000
C       -1.42020000      -0.71300000       0.17000000
C       -2.67140000      -0.07310000       0.71520000
N       -2.59470000      -0.49840000      -0.66060000
C       -2.73080000       0.31320000      -1.76680000
O       -3.51420000       1.22830000      -1.86550000
H        0.77680000       1.98500000      -0.31190000
H       -0.94350000       1.97140000      -0.70420000
H       -0.42690000       1.92710000       0.98580000
H        0.71800000      -1.58270000      -1.33400000
H        1.57700000       0.02700000      -1.45520000
H        1.68670000       0.07260000       0.89280000
H       -1.23690000      -1.75470000       0.42420000
H       -3.32860000      -0.65070000       1.35930000
H       -2.67170000       0.99760000       0.89680000
H       -2.08040000      -0.01980000      -2.59820000
