16
Properties=species:S:1:pos:R:3 gdb_26685=T pbc="F F F"
C        0.03370000       1.58150000       0.08480000
C        0.04200000       0.08930000       0.02240000
C        0.07500000      -0.69670000      -1.08920000
N        0.08830000      -0.35750000      -2.44290000
O        0.08600000      -2.03530000      -0.73640000
C        0.04280000      -2.07420000       0.62670000
O        0.14690000      -3.27060000       1.25170000
C        0.01580000      -0.81810000       1.13820000
O       -0.01760000      -0.42530000       2.44270000
H        0.12180000       1.99910000      -0.92060000
H       -0.88970000       1.96050000       0.53790000
H        0.86260000       1.95740000       0.69470000
H       -0.78290000      -0.58400000      -2.91370000
H        0.84060000      -0.81880000      -2.94480000
H       -0.60950000      -3.82460000       1.02040000
H        0.03780000      -1.21650000       2.99040000
