13
Properties=species:S:1:pos:R:3 gdb_4311=T pbc="F F F"
N        0.05200000       1.36100000       0.13560000
C       -0.04450000       0.00210000       0.05150000
C       -1.21460000      -0.69640000       0.03080000
C       -1.20630000      -2.12820000      -0.00430000
N       -2.21650000      -2.89330000      -0.02190000
O        0.10040000      -2.70080000      -0.02320000
C        1.17260000      -1.90730000      -0.01100000
N        1.19960000      -0.63190000       0.02490000
H        0.94820000       1.75360000      -0.10200000
H       -0.75740000       1.91880000      -0.07820000
H       -2.18140000      -0.21150000       0.04650000
H       -1.93510000      -3.87200000      -0.04850000
H        2.09390000      -2.48360000      -0.03710000
