15
Properties=species:S:1:pos:R:3 gdb_130290=T pbc="F F F"
N       -0.01720000       1.40500000       0.14940000
C        0.04610000       0.02540000       0.03580000
N       -1.07010000      -0.69230000       0.01620000
O       -0.66490000      -2.05450000      -0.01000000
C        0.66390000      -2.06060000      -0.02540000
C        1.19370000      -0.80680000      -0.00050000
C        2.68820000      -0.92180000       0.00740000
C        2.87560000      -2.43470000      -0.02590000
C        1.69240000      -3.08570000      -0.04220000
H        0.68420000       1.89410000      -0.38820000
H       -0.94440000       1.76640000      -0.03410000
H        3.17740000      -0.44900000      -0.85490000
H        3.15590000      -0.48860000       0.90150000
H        3.85330000      -2.89890000      -0.03600000
H        1.53170000      -4.15410000      -0.06400000
