20
Properties=species:S:1:pos:R:3 gdb_93274=T pbc="F F F"
C       -0.56280000       1.37330000       0.00510000
C        0.10010000       0.00030000      -0.00700000
C        1.21220000      -0.16550000      -1.05120000
O        2.02120000      -1.27260000      -0.59120000
C        1.76800000      -1.50680000       0.71860000
N        2.21110000      -2.46250000       1.41410000
C        0.81970000      -0.45570000       1.28340000
C        1.62790000       0.65020000       1.98280000
O       -0.08520000      -1.04040000       2.19550000
H        0.16450000       2.17640000       0.15910000
H       -1.07510000       1.56590000      -0.94330000
H       -1.30840000       1.43100000       0.80310000
H       -0.66310000      -0.76380000      -0.19580000
H        0.84650000      -0.41670000      -2.04930000
H        1.84610000       0.72710000      -1.12560000
H        2.81300000      -3.08740000       0.87800000
H        2.30920000       1.16890000       1.29970000
H        0.94620000       1.38270000       2.42230000
H        2.22300000       0.20430000       2.78380000
H        0.38020000      -1.80200000       2.57210000
