17
Properties=species:S:1:pos:R:3 gdb_27264=T pbc="F F F"
N       -0.07900000       1.42760000       0.02230000
C       -0.13130000       0.03490000      -0.02020000
C       -1.15250000      -0.84670000      -0.16590000
N       -2.53420000      -0.87160000      -0.38150000
C       -2.97640000      -2.23800000      -0.00870000
C       -1.73940000      -3.14960000      -0.28130000
C       -0.61460000      -2.16730000      -0.11560000
C        0.72140000      -2.02790000       0.05450000
O        1.04860000      -0.70600000       0.11400000
H        0.40440000       1.76950000       0.84720000
H        0.37870000       1.82930000      -0.79120000
H       -3.06030000      -0.12360000       0.04990000
H       -3.24370000      -2.29680000       1.05740000
H       -3.85190000      -2.53220000      -0.59400000
H       -1.71150000      -4.00440000       0.39900000
H       -1.77390000      -3.54410000      -1.30430000
H        1.54200000      -2.71830000       0.16540000
