22
Properties=species:S:1:pos:R:3 gdb_15720=T pbc="F F F"
C       -0.64500000       1.08930000       0.09850000
O       -0.27570000      -0.26580000       0.15600000
C        0.80330000      -0.54450000       1.04200000
C        0.33510000      -0.63770000       2.51050000
C       -0.09790000      -2.11860000       2.72430000
C        0.23650000      -2.84770000       1.40100000
C        1.30630000      -1.96560000       0.73070000
C        1.56530000      -2.25480000      -0.74550000
H        0.19720000       1.72680000      -0.21550000
H       -1.44650000       1.17660000      -0.63970000
H       -1.01740000       1.47000000       1.06180000
H        1.58850000       0.21470000       0.90190000
H        1.16160000      -0.37230000       3.17790000
H       -0.47160000       0.07130000       2.71430000
H        0.45570000      -2.55800000       3.55980000
H       -1.15850000      -2.20290000       2.97470000
H        0.57630000      -3.87570000       1.55680000
H       -0.64660000      -2.88790000       0.75460000
H        2.24580000      -2.08470000       1.28950000
H        0.66000000      -2.08860000      -1.33400000
H        2.35090000      -1.60540000      -1.14740000
H        1.88640000      -3.29180000      -0.88900000
