19
Properties=species:S:1:pos:R:3 gdb_93080=T pbc="F F F"
C        0.08570000       1.44980000       0.07110000
N        0.01400000      -0.00260000       0.01070000
C       -1.30940000      -0.44970000      -0.39020000
C       -1.43800000      -1.92600000      -0.61810000
C       -0.56510000      -2.91120000      -0.39430000
N        0.70510000      -2.86820000       0.18390000
C        1.29270000      -1.90650000       0.97580000
O        2.39640000      -2.08700000       1.45120000
C        0.48540000      -0.64040000       1.23810000
H        1.10660000       1.76180000       0.30680000
H       -0.17790000       1.86940000      -0.90500000
H       -0.59370000       1.89340000       0.82390000
H       -2.08670000      -0.12970000       0.34040000
H       -1.56490000       0.06460000      -1.32690000
H       -2.39200000      -2.23170000      -1.03700000
H       -0.84530000      -3.92260000      -0.67140000
H        1.27930000      -3.69370000       0.09120000
H        1.16890000       0.02640000       1.76460000
H       -0.34240000      -0.87790000       1.93210000
