21
Properties=species:S:1:pos:R:3 gdb_86576=T pbc="F F F"
C       -0.65510000       1.38470000      -0.03590000
C        0.06380000       0.04460000      -0.03390000
C        1.40200000      -0.05190000      -0.82510000
N        2.01840000      -0.62670000       0.36760000
C        0.86010000      -0.41100000       1.24570000
C        1.07120000       0.59630000       2.36960000
C        3.31310000      -0.88490000       0.71360000
N        4.21670000      -0.78130000      -0.34120000
O        3.65770000      -1.15430000       1.85320000
H        0.00880000       2.20600000       0.24940000
H       -1.04640000       1.60690000      -1.03470000
H       -1.50300000       1.38260000       0.65690000
H       -0.62690000      -0.74220000      -0.34820000
H        1.39310000      -0.71010000      -1.70370000
H        1.82470000       0.91860000      -1.11980000
H        0.48720000      -1.34970000       1.67240000
H        1.43800000       1.55540000       1.99160000
H        0.13210000       0.77140000       2.90500000
H        1.81100000       0.20480000       3.07030000
H        3.88000000      -0.98230000      -1.27090000
H        5.10490000      -1.20800000      -0.12430000
