21
Properties=species:S:1:pos:R:3 gdb_70867=T pbc="F F F"
C       -0.10600000       1.52190000      -0.02280000
C        0.01470000       0.02750000      -0.03200000
C        0.92010000      -0.82520000      -0.92490000
C        0.08570000      -2.03210000      -0.41910000
C        0.02900000      -3.36360000      -1.09980000
O        0.45910000      -2.09980000       0.99440000
C       -0.28860000      -0.89210000       1.17560000
C       -0.62010000      -0.46720000       2.56580000
C       -1.09040000      -1.03600000      -0.07670000
H        0.81960000       1.99270000       0.32920000
H       -0.31400000       1.91010000      -1.02670000
H       -0.91700000       1.85900000       0.63130000
H        0.73760000      -0.61720000      -1.98390000
H        1.99600000      -0.86010000      -0.71970000
H        1.01620000      -3.83820000      -1.07800000
H       -0.68080000      -4.02720000      -0.59760000
H       -0.27510000      -3.24980000      -2.14470000
H        0.29300000      -0.26190000       3.13540000
H       -1.22940000       0.44070000       2.56040000
H       -1.17820000      -1.25110000       3.08750000
H       -2.14800000      -0.99840000      -0.30440000
