17
Properties=species:S:1:pos:R:3 gdb_66952=T pbc="F F F"
O        0.00480000       1.37300000       0.11000000
C        0.07230000       0.00710000      -0.00550000
C       -0.91890000      -0.90380000       0.73330000
O       -1.05260000      -2.11400000      -0.01070000
C        0.39120000      -2.02860000      -0.22630000
C        0.54610000      -1.05310000       1.00290000
C        0.53750000      -0.83320000      -1.17580000
C        0.29310000      -0.72830000      -2.64050000
C        1.69410000      -0.53640000      -2.07580000
H        0.90280000       1.72470000       0.09510000
H       -1.74240000      -0.54650000       1.33770000
H        0.87550000      -2.98780000      -0.39700000
H        1.15990000      -1.03650000       1.89250000
H        0.08610000      -1.63680000      -3.19660000
H       -0.22660000       0.15070000      -3.00810000
H        2.10570000       0.46930000      -2.07660000
H        2.43030000      -1.31390000      -2.25530000
