14
Properties=species:S:1:pos:R:3 gdb_28171=T pbc="F F F"
C        0.09290000       1.43190000      -0.00040000
C       -0.07060000      -0.04200000      -0.02140000
N       -1.13270000      -0.74190000      -0.27370000
C       -0.70380000      -2.06400000      -0.15130000
C        0.60880000      -2.04170000       0.17120000
O        1.17980000      -3.23280000       0.32700000
C        0.12050000      -4.11350000       0.07780000
C       -1.04050000      -3.45970000      -0.21610000
O        1.08280000      -0.79200000       0.27180000
H        0.84040000       1.75880000      -0.73090000
H       -0.86630000       1.89040000      -0.24230000
H        0.41840000       1.78120000       0.98510000
H        0.38520000      -5.15340000       0.15630000
H       -1.98380000      -3.93050000      -0.44200000
