18
Properties=species:S:1:pos:R:3 gdb_110137=T pbc="F F F"
O        0.10540000       1.35660000       0.55120000
C        0.06920000       0.14960000      -0.18560000
C       -1.23190000      -0.57550000       0.06980000
C       -1.48150000      -2.05880000      -0.04830000
C       -0.44810000      -3.08330000      -0.46110000
O       -0.67970000      -4.32760000       0.17580000
N       -1.30190000      -1.42180000       1.24840000
C       -2.23560000      -1.27150000       2.25800000
O       -2.51150000      -0.21210000       2.76610000
H       -0.16600000       1.15480000       1.45520000
H        0.14610000       0.42900000      -1.24200000
H        0.92200000      -0.50100000       0.05590000
H       -2.10470000       0.05790000      -0.08710000
H       -2.50330000      -2.34220000      -0.30180000
H       -0.52890000      -3.27110000      -1.53670000
H        0.56370000      -2.70800000      -0.25900000
H       -0.53730000      -4.19580000       1.11970000
H       -2.64770000      -2.23890000       2.60380000
