14
Properties=species:S:1:pos:R:3 gdb_131733=T pbc="F F F"
O        0.03060000       1.44950000       0.01030000
C        0.01510000       0.04560000       0.00090000
C       -1.40760000      -0.45400000       0.01230000
N       -2.39690000       0.39110000       0.02210000
N       -3.61440000      -0.14900000       0.03130000
C       -3.95710000      -1.51220000       0.03130000
O       -5.11550000      -1.85400000       0.04010000
N       -2.86310000      -2.38620000       0.02060000
C       -1.67800000      -1.86580000       0.01190000
H        0.94820000       1.73680000      -0.00100000
H        0.51910000      -0.36880000      -0.89040000
H        0.53720000      -0.38090000       0.87600000
H       -4.38140000       0.51070000       0.03910000
H       -0.83380000      -2.55950000       0.00370000
