14
Properties=species:S:1:pos:R:3 gdb_27804=T pbc="F F F"
C       -0.01930000       1.47070000       0.02820000
C        0.00070000      -0.02370000      -0.02350000
N       -0.02270000      -0.61520000      -1.17870000
C       -0.00350000      -1.97800000      -1.23190000
N       -0.02390000      -2.67710000      -2.27780000
O        0.04220000      -2.66910000       0.05190000
C        0.06250000      -1.92640000       1.15570000
O        0.10290000      -2.64780000       2.26560000
N        0.04480000      -0.64410000       1.21450000
H        0.86860000       1.83120000       0.55830000
H       -0.05370000       1.88950000      -0.97650000
H       -0.88580000       1.80590000       0.60790000
H       -0.00340000      -3.67120000      -2.05920000
H        0.10960000      -3.58420000       2.02230000
