16
Properties=species:S:1:pos:R:3 gdb_20567=T pbc="F F F"
C        0.10190000       1.38110000       0.94140000
C       -0.11200000       0.30380000      -0.12490000
O        0.90950000      -0.69290000      -0.07070000
C       -1.47910000      -0.32580000      -0.05660000
C       -1.79590000      -1.62550000      -0.40620000
N       -3.12750000      -1.76650000      -0.20350000
N       -3.71690000      -0.64780000       0.25630000
C       -2.71920000       0.22760000       0.34630000
H        1.11570000       1.78190000       0.86220000
H       -0.60730000       2.20610000       0.82120000
H       -0.03430000       0.96520000       1.94620000
H        0.02970000       0.76360000      -1.11170000
H        0.81490000      -1.14690000       0.77490000
H       -1.17880000      -2.42840000      -0.77510000
H       -3.68900000      -2.58860000      -0.34650000
H       -2.92430000       1.22820000       0.69770000
