16
Properties=species:S:1:pos:R:3 gdb_127219=T pbc="F F F"
C       -0.02470000       1.41010000       0.11000000
N        0.00910000      -0.02780000      -0.01090000
C       -0.06410000      -0.77070000      -1.12840000
C        0.02010000      -2.10470000      -0.74700000
C       -0.01970000      -3.26760000      -1.54010000
C       -0.06060000      -4.29090000      -2.17740000
C        0.14990000      -2.03950000       0.67530000
N        0.32970000      -3.11320000       1.52720000
N        0.13730000      -0.78680000       1.11430000
H        0.90860000       1.77860000       0.54600000
H       -0.15610000       1.84500000      -0.88220000
H       -0.85520000       1.71650000       0.75240000
H       -0.17070000      -0.32800000      -2.10590000
H       -0.08280000      -5.18340000      -2.75140000
H       -0.07210000      -3.97480000       1.18610000
H        0.07260000      -2.91600000       2.48400000
