19
Properties=species:S:1:pos:R:3 gdb_122261=T pbc="F F F"
O        0.01240000       1.38780000       0.33310000
C        0.02740000       0.03260000      -0.08000000
C       -1.37270000      -0.52990000       0.13200000
C       -1.47200000      -2.01230000      -0.24610000
C       -2.86890000      -2.58840000      -0.05930000
C       -3.03830000      -4.01160000       0.36480000
N       -3.35680000      -2.92630000       1.29560000
C       -3.88030000      -2.00980000      -0.92510000
N       -4.65450000      -1.54980000      -1.64990000
H        0.88130000       1.76510000       0.16800000
H        0.30760000      -0.06180000      -1.14200000
H        0.75850000      -0.55510000       0.50120000
H       -1.65060000      -0.38650000       1.18290000
H       -2.08130000       0.05710000      -0.46240000
H       -1.16910000      -2.15370000      -1.29110000
H       -0.77950000      -2.60710000       0.36330000
H       -3.89490000      -4.57860000       0.01470000
H       -2.12840000      -4.58900000       0.50710000
H       -2.59850000      -2.78910000       1.96070000
