18
Properties=species:S:1:pos:R:3 gdb_78569=T pbc="F F F"
C        0.13290000       1.63020000       0.03930000
C        0.04880000       0.11880000      -0.05020000
C        0.73910000      -0.67610000      -1.16130000
C        2.22520000      -0.81720000      -0.71700000
C        2.25740000      -0.21200000       0.63790000
O        3.05640000       0.31400000       1.34690000
N        0.87770000      -0.68870000       0.95530000
C        1.11080000      -1.71850000      -0.17720000
C        1.00470000      -3.19520000      -0.02940000
H        1.15230000       1.99770000      -0.10740000
H       -0.50680000       2.08500000      -0.72400000
H       -0.21210000       1.97020000       1.02060000
H       -0.98920000      -0.21200000       0.05460000
H        0.47880000      -0.79460000      -2.20790000
H        3.01910000      -1.04690000      -1.41510000
H       -0.01870000      -3.49110000       0.22260000
H        1.28530000      -3.69460000      -0.96170000
H        1.66650000      -3.55420000       0.76520000
