19
Properties=species:S:1:pos:R:3 gdb_80467=T pbc="F F F"
C       -0.17890000       1.50430000       0.13790000
N        0.05180000       0.07820000      -0.05350000
C        0.64990000      -0.45540000      -1.25950000
C        1.44360000       0.47020000      -2.17780000
N        2.52300000       0.96640000      -1.34310000
C        3.50010000       1.91830000      -1.81640000
C        2.59020000       0.38740000      -0.09720000
O        3.46290000       0.57660000       0.72580000
C        1.38490000      -0.51740000       0.04420000
H        0.59460000       2.16600000      -0.27410000
H       -1.13790000       1.76080000      -0.32300000
H       -0.25620000       1.69880000       1.21120000
H        0.15160000      -1.31070000      -1.70530000
H        1.83290000      -0.08960000      -3.04010000
H        0.83480000       1.29630000      -2.57190000
H        3.03180000       2.87170000      -2.09010000
H        4.21370000       2.08440000      -1.00750000
H        4.03520000       1.53370000      -2.69400000
H        1.48740000      -1.39240000       0.67680000
