21
Properties=species:S:1:pos:R:3 gdb_87487=T pbc="F F F"
C       -0.14020000       1.57790000       0.02750000
C       -0.04340000       0.06820000       0.00090000
C        1.27550000      -0.61450000      -0.35370000
C        0.72740000      -0.66910000       1.03560000
C        1.20510000      -0.25880000       2.43780000
O       -0.11790000      -0.69200000       2.95580000
C        0.31520000      -1.76720000       2.02600000
C        1.72080000      -1.70760000       2.69810000
C        2.97690000      -2.27600000       2.06100000
H        0.79150000       2.02550000       0.38980000
H       -0.33550000       1.98240000      -0.97170000
H       -0.94630000       1.90820000       0.69100000
H       -0.93530000      -0.43470000      -0.36720000
H        1.24670000      -1.51130000      -0.96520000
H        2.13440000       0.02320000      -0.54500000
H        1.59670000       0.69520000       2.79430000
H       -0.35840000      -2.61460000       1.88700000
H        1.64900000      -1.95380000       3.76120000
H        3.05710000      -2.03290000       1.00020000
H        3.86880000      -1.88970000       2.56640000
H        2.99450000      -3.36680000       2.16150000
