11
Properties=species:S:1:pos:R:3 gdb_130297=T pbc="F F F"
N        0.26140000       1.24930000       0.20130000
C        0.06970000      -0.10510000       0.04470000
N       -1.10550000      -0.65400000       0.00660000
O       -0.92270000      -2.06570000      -0.04270000
C        0.40600000      -2.40850000      -0.06710000
C        1.10070000      -1.11080000      -0.00680000
N        2.38900000      -0.95920000       0.05450000
N        3.51310000      -0.85570000       0.10720000
O        0.81340000      -3.53250000      -0.12080000
H        0.99510000       1.64970000      -0.36760000
H       -0.60270000       1.77160000       0.12540000
