16
Properties=species:S:1:pos:R:3 gdb_62590=T pbc="F F F"
C       -0.17920000       1.47050000       0.05740000
C        0.05820000      -0.03420000       0.04400000
O       -1.13780000      -0.75820000       0.19220000
C        0.89710000      -0.50060000      -1.15050000
C        2.14590000      -0.40780000      -0.38440000
C        1.27990000      -0.49300000       0.92570000
C        1.30330000      -1.98350000       0.62330000
O        1.29350000      -2.99820000       1.23930000
N        1.61920000      -1.77340000      -0.79740000
H        0.75120000       2.02910000      -0.07490000
H       -0.87160000       1.74700000      -0.74380000
H       -0.62270000       1.77900000       1.01150000
H       -1.62740000      -0.40940000       0.94490000
H        0.70260000      -0.34500000      -2.20430000
H        3.15490000      -0.09130000      -0.59710000
H        1.47460000      -0.07850000       1.91160000
