19
Properties=species:S:1:pos:R:3 gdb_119026=T pbc="F F F"
C       -0.22240000       1.48050000       1.03310000
O       -0.14980000       0.09460000       1.28770000
C        0.64600000      -0.60150000       0.35720000
C        0.59010000      -2.08580000       0.67650000
C        1.34590000      -2.97630000      -0.30590000
C        0.88790000      -2.82330000      -1.68840000
N        0.52880000      -2.67940000      -2.77730000
C        0.48470000      -2.51930000       2.09030000
N       -0.66510000      -2.65340000       1.17100000
H       -0.64670000       1.68710000       0.03940000
H       -0.87110000       1.91640000       1.79590000
H        0.76870000       1.95470000       1.09260000
H        0.27830000      -0.42940000      -0.66790000
H        1.69130000      -0.24770000       0.39320000
H        2.42070000      -2.75970000      -0.27120000
H        1.21080000      -4.01980000      -0.00750000
H        0.93140000      -3.45800000       2.40750000
H        0.44680000      -1.74190000       2.84600000
H       -1.31270000      -1.88860000       1.35060000
