18
Properties=species:S:1:pos:R:3 gdb_133843=T pbc="F F F"
C        4.09390000      -0.46740000      -4.30180000
C        4.84720000      -0.11840000      -3.04680000
C        4.27420000       0.81100000      -1.97650000
N        5.97980000       0.77590000      -3.17380000
C        6.80220000       0.41080000      -2.04080000
C        6.72640000      -1.11550000      -1.88060000
C        5.20230000      -1.16320000      -1.91660000
C        4.71230000      -0.06510000      -0.90030000
C        5.74920000       0.91040000      -1.01250000
H        3.91420000       0.43090000      -4.89980000
H        3.13260000      -0.93220000      -4.06420000
H        4.67550000      -1.16750000      -4.90960000
H        3.77440000       1.76100000      -2.09220000
H        7.76550000       0.91520000      -2.02250000
H        7.15680000      -1.47450000      -0.94110000
H        7.18920000      -1.63920000      -2.72410000
H        4.69450000      -2.12430000      -1.91360000
H        5.78400000       1.91100000      -0.60600000
