17
Properties=species:S:1:pos:R:3 gdb_14377=T pbc="F F F"
C        0.03330000       1.50800000      -0.26160000
O        1.45500000       1.55280000       0.10980000
C        1.22240000       0.38190000       0.91290000
C        1.78240000      -1.00020000       1.32730000
N        0.49970000      -1.03640000       2.18130000
C        0.72310000       0.44730000       2.37100000
C       -0.63600000      -0.95050000       1.17170000
C       -0.00640000      -0.00220000       0.11880000
H       -0.55920000       2.18160000       0.36820000
H       -0.10720000       1.75400000      -1.31620000
H        1.86740000      -1.77640000       0.56300000
H        2.64000000      -1.01010000       2.00140000
H        1.51530000       0.63030000       3.09960000
H       -0.17060000       1.02370000       2.62290000
H       -0.85020000      -1.93940000       0.76100000
H       -1.52620000      -0.58940000       1.69060000
H        0.27840000      -0.55930000      -0.77830000
