20
Properties=species:S:1:pos:R:3 gdb_7828=T pbc="F F F"
C       -0.01090000       1.51060000       0.06390000
C        0.03160000      -0.00740000      -0.00040000
C        0.73350000      -0.53170000      -1.25410000
O        0.83530000      -1.94500000      -1.22830000
C        1.51990000      -2.38740000      -0.06900000
C        0.82920000      -1.88980000       1.20170000
C        1.58480000      -2.25540000       2.46880000
O        0.72060000      -0.46960000       1.15820000
H        1.00200000       1.92460000       0.04720000
H       -0.56940000       1.91840000      -0.78420000
H       -0.49610000       1.83540000       0.98780000
H       -0.99420000      -0.41530000       0.00760000
H        0.16810000      -0.27440000      -2.15500000
H        1.73600000      -0.07530000      -1.32370000
H        1.52680000      -3.48110000      -0.10720000
H        2.56300000      -2.02690000      -0.07750000
H       -0.18510000      -2.32490000       1.22710000
H        2.59530000      -1.83570000       2.44850000
H        1.06780000      -1.85540000       3.34480000
H        1.65950000      -3.34200000       2.57510000
