17
Properties=species:S:1:pos:R:3 gdb_86865=T pbc="F F F"
C       -0.64970000       1.15930000       0.09570000
C        0.22220000      -0.09230000       0.04170000
C        1.11150000      -0.26550000      -1.19710000
C        2.30720000      -1.04920000      -0.63620000
O        2.39250000      -0.72250000       0.75980000
C        1.22190000      -0.15920000       1.19710000
O        1.07630000       0.19640000       2.32810000
C        2.17510000      -2.56510000      -0.77600000
O        1.64960000      -3.10440000      -1.71320000
H       -0.04830000       2.06150000      -0.05560000
H       -1.42180000       1.13000000      -0.67800000
H       -1.13340000       1.23790000       1.07230000
H       -0.41670000      -0.97970000       0.15670000
H        0.64150000      -0.81480000      -2.01410000
H        1.43890000       0.70860000      -1.57210000
H        3.25970000      -0.76200000      -1.09780000
H        2.62220000      -3.13380000       0.06790000
