14
Properties=species:S:1:pos:R:3 gdb_15446=T pbc="F F F"
O       -0.03530000      -0.00430000       0.20180000
C       -0.07330000       1.19460000       0.10110000
C       -1.26190000       2.05630000      -0.07030000
C       -0.91330000       3.34710000      -0.08870000
C        0.56620000       3.57460000       0.07840000
C        1.17140000       2.14560000       0.09710000
C        2.09190000       1.88320000       1.18770000
C        2.84000000       1.67910000       2.10560000
H       -2.26020000       1.64680000      -0.15220000
H       -1.60370000       4.17690000      -0.19860000
H        0.97620000       4.19160000      -0.72860000
H        0.77400000       4.10810000       1.01260000
H        1.67940000       1.95020000      -0.85660000
H        3.50440000       1.48480000       2.91070000
