19
Properties=species:S:1:pos:R:3 gdb_61990=T pbc="F F F"
C        0.00120000       1.50210000       0.13650000
C       -0.04580000      -0.03230000      -0.00010000
C       -1.48600000      -0.56190000      -0.04280000
O       -2.10120000      -0.22660000       1.21210000
C       -3.40590000      -0.56040000       1.33730000
C       -3.93020000      -0.15580000       2.69400000
O       -4.03850000      -1.10510000       0.46980000
C        0.66920000      -0.48830000      -1.19030000
C        1.23790000      -0.85470000      -2.18370000
H        1.03430000       1.85070000       0.20520000
H       -0.46120000       1.97870000      -0.73340000
H       -0.53740000       1.81330000       1.03420000
H        0.43420000      -0.47330000       0.88400000
H       -2.05030000      -0.10840000      -0.86320000
H       -1.50520000      -1.64630000      -0.18050000
H       -3.82300000       0.92400000       2.83120000
H       -4.97890000      -0.43860000       2.77590000
H       -3.34890000      -0.64280000       3.48190000
H        1.74960000      -1.18260000      -3.05460000
