22
Properties=species:S:1:pos:R:3 gdb_13818=T pbc="F F F"
C        0.03250000       1.51820000       0.50820000
C       -0.01690000       0.04330000       0.92760000
C       -1.32250000      -0.60560000       0.53310000
O       -1.51980000      -0.89320000      -0.85970000
C       -1.48860000      -1.99070000       0.06040000
C       -0.38140000      -3.01260000      -0.09730000
C       -0.28340000      -3.88680000       1.16100000
C       -0.62510000      -3.85530000      -1.35820000
H        0.98040000       1.98010000       0.79940000
H       -0.07480000       1.61090000      -0.57660000
H       -0.77660000       2.09060000       0.97490000
H        0.82110000      -0.49500000       0.47590000
H        0.09760000      -0.04040000       2.01640000
H       -2.19780000      -0.14510000       1.00080000
H       -2.47220000      -2.44340000       0.22320000
H        0.56530000      -2.47740000      -0.22860000
H       -1.22160000      -4.42520000       1.34020000
H        0.50970000      -4.63360000       1.05530000
H       -0.06760000      -3.28770000       2.05150000
H        0.18760000      -4.57200000      -1.51400000
H       -1.55940000      -4.42360000      -1.27640000
H       -0.69540000      -3.21600000      -2.24270000
