15
Properties=species:S:1:pos:R:3 gdb_125087=T pbc="F F F"
C        0.18630000       1.39660000      -0.38820000
C        0.05590000      -0.07480000      -0.14340000
C       -0.30030000      -1.06010000      -1.04010000
N       -0.31320000      -2.24490000      -0.38100000
N        0.00620000      -2.10400000       0.92020000
C        0.23590000      -0.80280000       1.06050000
O       -0.65940000      -1.00930000      -2.35860000
C        0.32380000      -0.69630000      -3.26500000
O        0.09130000      -0.58590000      -4.42420000
H        1.23150000       1.72560000      -0.38310000
H       -0.24460000       1.67540000      -1.35430000
H       -0.33740000       1.97120000       0.38220000
H       -0.57380000      -3.14520000      -0.74810000
H        0.51920000      -0.41380000       2.02830000
H        1.30590000      -0.57060000      -2.77740000
