16
Properties=species:S:1:pos:R:3 gdb_108458=T pbc="F F F"
O       -0.01220000       1.44320000       0.21780000
C        0.03290000       0.03340000       0.10140000
C       -1.36600000      -0.52580000       0.00780000
N       -2.30250000      -0.35370000       1.15140000
C       -2.63550000      -1.80550000       1.14470000
C       -1.86550000      -1.98160000      -0.17560000
O       -2.62500000      -1.57150000      -1.35920000
C       -2.14800000      -0.27980000      -1.29130000
O       -2.33710000       0.61750000      -2.04940000
H       -0.49400000       1.78290000      -0.54710000
H        0.62180000      -0.29390000      -0.77010000
H        0.53730000      -0.33780000       1.00090000
H       -1.85020000      -0.01300000       1.99140000
H       -2.17180000      -2.37920000       1.95630000
H       -3.70650000      -2.02450000       1.11180000
H       -1.27120000      -2.86980000      -0.37780000
