17
Properties=species:S:1:pos:R:3 gdb_29800=T pbc="F F F"
C       -0.05080000       1.44090000       0.05390000
N       -0.05280000      -0.01030000       0.02810000
C       -0.04650000      -0.78980000      -1.09120000
C        0.03860000      -2.12380000      -0.73080000
C        0.05610000      -3.29930000      -1.66140000
C        0.09310000      -2.14970000       0.68230000
C        0.03850000      -0.83840000       1.13180000
C        0.05450000      -0.32820000       2.44660000
N        0.06530000       0.10610000       3.52250000
H        0.96900000       1.84000000       0.03610000
H       -0.59520000       1.81680000      -0.81450000
H       -0.54670000       1.79210000       0.96050000
H       -0.10500000      -0.33830000      -2.07010000
H        0.96500000      -3.89850000      -1.53770000
H       -0.79540000      -3.96650000      -1.48700000
H        0.01340000      -2.97550000      -2.70510000
H        0.15200000      -3.02030000       1.31750000
