17
Properties=species:S:1:pos:R:3 gdb_7475=T pbc="F F F"
O        0.06190000       1.54760000      -0.30690000
C       -0.02050000       0.18210000       0.01570000
C        0.84230000      -0.65890000      -0.95510000
C        2.24680000      -0.26260000      -0.88160000
N        3.33880000       0.10530000      -0.78720000
C        0.16220000      -0.22560000       1.51010000
C       -1.12430000      -1.08890000       1.39400000
C       -1.47980000      -0.32850000       0.08670000
H        0.98100000       1.83100000      -0.22110000
H        0.75620000      -1.72670000      -0.72750000
H        0.48310000      -0.50380000      -1.97810000
H        1.09520000      -0.71980000       1.79230000
H        0.01300000       0.64800000       2.14880000
H       -0.90620000      -2.14580000       1.21930000
H       -1.84050000      -1.01960000       2.21390000
H       -2.14880000       0.51540000       0.26740000
H       -1.85440000      -0.90430000      -0.76350000
