21
Properties=species:S:1:pos:R:3 gdb_56144=T pbc="F F F"
C       -0.05790000       1.42790000      -0.07890000
C       -0.05920000      -0.07310000       0.08720000
O       -0.08700000      -0.66570000       1.13460000
O       -0.02440000      -0.68510000      -1.11740000
C       -0.02200000      -2.12140000      -1.09300000
C        0.01940000      -2.62600000      -2.53920000
C       -1.22750000      -2.18070000      -3.31300000
C        1.30550000      -2.17510000      -3.24250000
O        0.01790000      -4.04650000      -2.36850000
H        0.83750000       1.74520000      -0.62080000
H       -0.92360000       1.74130000      -0.66930000
H       -0.08600000       1.90060000       0.90190000
H        0.84840000      -2.48180000      -0.53770000
H       -0.92030000      -2.48570000      -0.58700000
H       -1.29240000      -1.09070000      -3.36260000
H       -1.19980000      -2.56590000      -4.33870000
H       -2.12960000      -2.56430000      -2.82760000
H        2.18090000      -2.55460000      -2.70740000
H        1.33670000      -2.56050000      -4.26800000
H        1.36820000      -1.08480000      -3.28870000
H        0.04320000      -4.44740000      -3.24340000
