18
Properties=species:S:1:pos:R:3 gdb_90604=T pbc="F F F"
C       -0.02560000       1.38470000      -0.19080000
N       -0.03690000      -0.03760000       0.05960000
C       -1.11030000      -1.02500000       0.02710000
C       -1.53830000      -1.49610000      -1.38800000
O       -1.56820000      -0.45350000      -2.33260000
C       -0.35490000      -2.51520000      -1.41850000
C        0.00030000      -2.12920000       0.05260000
C        0.99430000      -0.95120000       0.09180000
O        2.19050000      -0.81490000       0.08550000
H        1.01710000       1.71110000      -0.16850000
H       -0.45800000       1.61430000      -1.16890000
H       -0.58090000       1.92690000       0.58320000
H       -1.88320000      -0.89400000       0.78690000
H       -2.50360000      -2.02070000      -1.33730000
H       -1.74600000      -0.82980000      -3.20040000
H       -0.66860000      -3.55240000      -1.55110000
H        0.43100000      -2.28480000      -2.14130000
H        0.07130000      -2.90970000       0.80590000
