19
Properties=species:S:1:pos:R:3 gdb_7795=T pbc="F F F"
C       -0.00270000       1.56980000       0.01880000
C        0.00780000       0.03940000      -0.01580000
C        0.69630000      -0.50960000      -1.27990000
N        0.75910000      -1.96920000      -1.34660000
C        1.42420000      -2.55800000      -0.17860000
C        0.85020000      -2.06710000       1.15140000
O        0.54390000      -2.81800000       2.04870000
C        0.68350000      -0.55610000       1.23990000
H        1.01860000       1.96870000       0.01700000
H       -0.52410000       1.98270000      -0.85120000
H       -0.50340000       1.94280000       0.91800000
H       -1.03410000      -0.31350000      -0.03310000
H        0.18260000      -0.14530000      -2.17650000
H        1.72640000      -0.12630000      -1.32820000
H       -0.18280000      -2.34420000      -1.41440000
H        1.35550000      -3.64780000      -0.21510000
H        2.49010000      -2.28760000      -0.21860000
H        1.69170000      -0.12270000       1.33140000
H        0.13700000      -0.31400000       2.15580000
