17
Properties=species:S:1:pos:R:3 gdb_10120=T pbc="F F F"
C        0.08770000       1.55080000      -0.38320000
C        0.10020000       0.03880000      -0.15080000
C        0.80960000      -0.75440000      -1.27570000
N        2.22330000      -0.46640000      -1.40410000
C        2.70410000       0.38340000      -2.35270000
O        2.02320000       1.11540000      -3.04020000
C        0.63100000      -2.23800000      -1.01500000
O        1.54310000      -3.00300000      -0.82470000
H        1.10230000       1.95410000      -0.42240000
H       -0.40100000       1.80280000      -1.32840000
H       -0.44720000       2.05360000       0.42820000
H        0.59250000      -0.19390000       0.80160000
H       -0.92970000      -0.33280000      -0.07090000
H        0.31890000      -0.50680000      -2.22740000
H        2.83940000      -1.18030000      -1.03750000
H        3.80890000       0.34640000      -2.41790000
H       -0.42600000      -2.57610000      -0.97460000
