20
Properties=species:S:1:pos:R:3 gdb_112054=T pbc="F F F"
C       -0.04580000       1.55750000       0.03260000
C       -0.04100000       0.02910000      -0.01750000
C        0.72310000      -0.52610000      -1.22770000
N        2.16750000      -0.22100000      -1.16610000
C        2.77020000      -1.34080000      -1.24760000
N        1.96100000      -2.46260000      -1.38170000
C        0.62580000      -2.04780000      -1.34680000
N       -0.43620000      -2.73710000      -1.39490000
C       -0.30110000      -4.18070000      -1.50590000
H        0.97480000       1.94810000       0.05840000
H       -0.54390000       1.97910000      -0.84770000
H       -0.57600000       1.91720000       0.91970000
H        0.41180000      -0.37740000       0.89490000
H       -1.06050000      -0.36770000      -0.06850000
H        0.31490000      -0.06780000      -2.13860000
H        3.84910000      -1.46180000      -1.22540000
H        2.27780000      -3.41630000      -1.38480000
H        0.24840000      -4.48120000      -2.41210000
H        0.22140000      -4.61940000      -0.64060000
H       -1.29200000      -4.63840000      -1.55540000
