13
Properties=species:S:1:pos:R:3 gdb_130098=T pbc="F F F"
N        0.01350000       1.30980000       0.14050000
C       -0.00070000      -0.06500000       0.02450000
N       -1.08370000      -0.80480000      -0.01160000
N       -0.56250000      -2.07600000      -0.00530000
N       -1.08030000      -3.32240000      -0.03870000
C        0.04400000      -4.04330000      -0.04140000
N        1.23420000      -3.35770000      -0.02090000
C        0.77970000      -2.12020000       0.00250000
N        1.17500000      -0.79950000       0.00860000
H        0.60560000       1.77830000      -0.53450000
H       -0.92680000       1.68370000       0.11620000
H        0.00650000      -5.12200000      -0.05850000
H        2.09650000      -0.44870000       0.20300000
