17
Properties=species:S:1:pos:R:3 gdb_33926=T pbc="F F F"
N       -0.00880000      -1.08810000       0.05520000
C       -0.00560000       0.06770000       0.01130000
C       -0.01230000       1.51050000      -0.07760000
C        0.61050000       2.10750000      -1.33710000
C        1.33440000       2.20740000      -0.00400000
C        1.35340000       3.49750000       0.72540000
C        0.23290000       4.11360000       1.09580000
C       -1.13020000       3.55110000       0.80870000
N       -1.11390000       2.09300000       0.64690000
H        1.00000000       1.42800000      -2.08650000
H        0.16060000       3.01550000      -1.72220000
H        2.20180000       1.56910000       0.11990000
H        2.32480000       3.93230000       0.94010000
H        0.26770000       5.07250000       1.60260000
H       -1.80820000       3.78170000       1.63940000
H       -1.54880000       4.07100000      -0.07370000
H       -1.99200000       1.77500000       0.25360000
