12
Properties=species:S:1:pos:R:3 gdb_53773=T pbc="F F F"
N       -0.05660000       1.34600000       0.15610000
C        0.09930000       0.00120000       0.04380000
N        1.15170000      -0.71890000      -0.06380000
C       -1.22020000      -0.73620000       0.07550000
O       -2.28260000      -0.15290000       0.13110000
C       -1.14930000      -2.18280000       0.02690000
C       -1.21910000      -3.39000000      -0.00350000
C       -1.27250000      -4.75220000      -0.04030000
N       -1.32120000      -5.91250000      -0.07170000
H        0.71410000       1.96940000      -0.00840000
H       -0.99540000       1.71090000       0.11210000
H        2.00680000      -0.15990000      -0.08620000
