14
Properties=species:S:1:pos:R:3 gdb_47124=T pbc="F F F"
O        0.01120000       0.18610000       0.78230000
C       -0.00220000       1.20930000       0.15960000
C       -1.29470000       1.97430000      -0.08470000
C       -1.15840000       3.24400000      -0.88360000
C        0.02790000       3.65270000      -1.33780000
C        1.28510000       2.89560000      -1.09240000
O        1.16180000       1.69170000      -0.33590000
C       -2.34840000       3.99360000      -1.13620000
N       -3.33340000       4.57370000      -1.32060000
H       -1.98820000       1.27970000      -0.57220000
H       -1.73460000       2.17770000       0.89820000
H        0.12460000       4.56740000      -1.91310000
H        1.75130000       2.62600000      -2.05000000
H        2.00770000       3.53320000      -0.56460000
