13
Properties=species:S:1:pos:R:3 gdb_48058=T pbc="F F F"
O       -0.76380000       1.36260000       0.17150000
C        0.34010000       0.96760000       0.43350000
C        1.60770000       1.80740000       0.21510000
O        2.68300000       1.27750000       0.26690000
C        1.36200000       3.31080000      -0.07860000
C        1.01890000       3.93530000       1.20320000
C        0.74300000       4.39930000       2.27570000
C        2.49940000       3.93920000      -0.74040000
C        3.43160000       4.44500000      -1.30070000
H        0.55990000      -0.05370000       0.80570000
H        0.47310000       3.35270000      -0.72360000
H        0.49590000       4.83110000       3.21440000
H        4.25800000       4.89660000      -1.79200000
