20
Properties=species:S:1:pos:R:3 gdb_15621=T pbc="F F F"
C       -0.29050000       1.60250000      -0.12190000
C        0.06120000       0.10920000       0.01570000
C        0.77890000      -0.45140000      -1.17550000
C        2.03340000      -0.89940000      -1.27930000
C        3.11200000      -0.98230000      -0.24760000
C        2.27570000      -1.37600000      -2.68860000
O        1.06370000      -1.14860000      -3.39510000
C        0.09330000      -0.59980000      -2.51230000
H        0.61290000       2.20520000      -0.25690000
H       -0.94350000       1.78460000      -0.98100000
H       -0.80930000       1.96170000       0.77210000
H        0.66550000      -0.03690000       0.91700000
H       -0.86710000      -0.45750000       0.17500000
H        3.46290000      -2.01510000      -0.12560000
H        3.98730000      -0.38950000      -0.54260000
H        2.77950000      -0.62330000       0.72920000
H        3.10140000      -0.83210000      -3.17760000
H        2.53940000      -2.44720000      -2.72130000
H       -0.78310000      -1.26800000      -2.44980000
H       -0.26860000       0.35970000      -2.91510000
