21
Properties=species:S:1:pos:R:3 gdb_112980=T pbc="F F F"
O       -0.36370000       1.47630000       0.00400000
C       -0.02220000       0.10400000       0.13280000
C       -1.30230000      -0.70930000       0.05270000
C       -1.95310000      -0.72060000      -1.35870000
C       -1.34060000      -2.13360000      -1.60430000
C       -1.05540000      -2.23920000      -0.07910000
C       -2.22620000      -3.16450000      -2.24900000
C       -2.27760000      -4.56580000      -1.81510000
O       -3.32610000      -3.65480000      -1.47420000
H        0.44650000       1.99340000       0.03010000
H        0.67210000      -0.20830000      -0.66620000
H        0.47920000      -0.09610000       1.09430000
H       -1.96190000      -0.40280000       0.86870000
H       -3.04400000      -0.76290000      -1.30760000
H       -1.66040000       0.08560000      -2.03480000
H       -0.41370000      -2.06590000      -2.18460000
H       -0.07230000      -2.61290000       0.22280000
H       -1.83030000      -2.81990000       0.42640000
H       -2.49000000      -2.95420000      -3.28820000
H       -2.54870000      -5.34650000      -2.52440000
H       -1.65750000      -4.89190000      -0.98120000
