21
Properties=species:S:1:pos:R:3 gdb_106366=T pbc="F F F"
C        0.06090000       1.35430000      -0.16990000
O        0.01010000      -0.02440000       0.13490000
C       -1.26420000      -0.56880000       0.08510000
C       -2.15950000      -0.59750000      -1.21130000
C       -2.85730000      -1.73020000      -0.38520000
C       -1.41880000      -2.11720000       0.10620000
C       -3.36960000      -0.93260000       0.83180000
C       -4.71760000      -1.07410000       1.44880000
C       -2.32090000      -0.16370000       1.13950000
H        1.10460000       1.66430000      -0.08110000
H       -0.28510000       1.55610000      -1.19400000
H       -0.54780000       1.95300000       0.52300000
H       -2.75360000       0.28830000      -1.44680000
H       -1.62590000      -0.96790000      -2.09240000
H       -3.52340000      -2.45490000      -0.85070000
H       -0.81560000      -2.61650000      -0.65830000
H       -1.33020000      -2.61690000       1.07300000
H       -4.89380000      -2.10100000       1.79450000
H       -4.83790000      -0.40360000       2.30460000
H       -5.51420000      -0.85010000       0.72720000
H       -2.18810000       0.55210000       1.93880000
