19
Properties=species:S:1:pos:R:3 gdb_100487=T pbc="F F F"
C        0.05110000       1.57500000      -0.00300000
C        0.00790000       0.04770000       0.05870000
C       -1.43000000      -0.50370000      -0.02340000
O       -2.09700000      -0.07370000      -1.20990000
C       -1.44950000      -1.96380000       0.10860000
C       -1.43960000      -3.16570000       0.17660000
C       -1.43520000      -4.62670000       0.27660000
C       -2.77330000      -5.21760000       0.34400000
C       -3.86470000      -5.71420000       0.39880000
H        1.08270000       1.93880000       0.00370000
H       -0.43890000       1.93690000      -0.91030000
H       -0.46570000       2.01920000       0.85500000
H        0.58900000      -0.38680000      -0.76500000
H        0.46490000      -0.31670000       0.98600000
H       -2.01700000      -0.06350000       0.79330000
H       -1.74760000      -0.59690000      -1.94000000
H       -0.89390000      -5.05230000      -0.57970000
H       -0.86100000      -4.92750000       1.16400000
H       -4.83330000      -6.14670000       0.44730000
