17
Properties=species:S:1:pos:R:3 gdb_90108=T pbc="F F F"
O        0.17500000       1.45600000      -0.08920000
C        0.08060000       0.05990000      -0.00460000
C        0.19030000      -0.58420000       1.47740000
C       -1.33630000      -0.57950000       1.39980000
O       -2.63150000      -1.34440000       1.47090000
C       -2.80240000      -0.21100000       0.43420000
C       -2.19920000       0.73660000       1.47360000
O       -2.91180000       0.98060000       2.63640000
C       -1.37570000      -0.56170000      -0.09570000
H        1.08130000       1.71160000       0.11300000
H        0.75420000      -0.42570000      -0.72130000
H        0.64710000      -1.57550000       1.42690000
H        0.66380000       0.01460000       2.26080000
H       -3.77380000      -0.21930000      -0.06730000
H       -1.74280000       1.65830000       1.12250000
H       -3.27920000       0.11890000       2.88540000
H       -1.33550000      -1.55040000      -0.55280000
