19
Properties=species:S:1:pos:R:3 gdb_115237=T pbc="F F F"
O       -0.15030000       1.48630000      -0.00660000
C       -0.00070000       0.07880000      -0.10740000
C       -1.38130000      -0.55570000       0.02410000
C       -1.33840000      -2.07900000      -0.10400000
C       -2.76010000      -2.63400000       0.00690000
C       -3.61150000      -2.04370000       1.12580000
O       -4.59660000      -2.59100000       1.54140000
O       -3.28810000      -0.81860000       1.60400000
C       -2.00890000      -0.20420000       1.36980000
H        0.72020000       1.89140000      -0.05600000
H        0.43870000      -0.21070000      -1.07500000
H        0.66250000      -0.31070000       0.68320000
H       -2.01460000      -0.14420000      -0.77340000
H       -0.88660000      -2.38670000      -1.05340000
H       -0.70830000      -2.49340000       0.69440000
H       -3.31270000      -2.42210000      -0.91800000
H       -2.77910000      -3.71880000       0.13160000
H       -1.33490000      -0.50810000       2.18340000
H       -2.17950000       0.86900000       1.45750000
