20
Properties=species:S:1:pos:R:3 gdb_66216=T pbc="F F F"
C        0.11410000       1.59630000       0.37260000
C       -0.01800000       0.12430000       0.05050000
C        1.15050000      -0.64460000      -0.51780000
C        0.67200000      -0.89730000       0.89990000
O       -1.30000000      -0.28000000      -0.37000000
C       -1.67640000       0.16460000      -1.65560000
C       -2.99350000      -0.54990000      -1.98620000
C       -3.51850000      -0.15990000      -3.29060000
N       -3.91860000       0.16040000      -4.32610000
H        1.10440000       1.81020000       0.78380000
H       -0.01430000       2.22370000      -0.51590000
H       -0.63600000       1.89350000       1.11290000
H        0.93370000      -1.41090000      -1.25350000
H        2.09150000      -0.12650000      -0.66730000
H        1.28230000      -0.55190000       1.72700000
H        0.13300000      -1.81940000       1.08260000
H       -1.82920000       1.25230000      -1.68330000
H       -0.90980000      -0.08550000      -2.40240000
H       -2.83540000      -1.63310000      -1.96590000
H       -3.73310000      -0.31860000      -1.21260000
