19
Properties=species:S:1:pos:R:3 gdb_53940=T pbc="F F F"
C       -0.05650000       1.49960000       0.49810000
C        0.10500000      -0.00030000       0.13830000
C        1.12380000      -0.65310000       1.08120000
C       -1.27800000      -0.69200000       0.36240000
N       -2.24400000      -0.35390000      -0.52650000
O       -1.46460000      -1.42530000       1.31580000
C        0.49150000      -0.06680000      -1.35430000
N        1.65260000      -0.69110000      -1.66930000
O       -0.21010000       0.43700000      -2.22380000
H        0.91240000       2.00760000       0.45350000
H       -0.73790000       1.99580000      -0.19360000
H       -0.44760000       1.59690000       1.51480000
H        0.77000000      -0.57350000       2.10960000
H        1.24240000      -1.72160000       0.87890000
H        2.09670000      -0.15510000       1.01120000
H       -1.97710000       0.10160000      -1.39010000
H       -3.12850000      -0.82900000      -0.44850000
H        2.24110000      -1.12960000      -0.98540000
H        1.90570000      -0.74340000      -2.64270000
