19
Properties=species:S:1:pos:R:3 gdb_71259=T pbc="F F F"
O        0.01390000       1.34140000      -0.14510000
C        0.02200000      -0.03840000      -0.02470000
C        0.48760000      -0.79610000       1.25650000
C       -0.37660000      -1.92590000       0.67690000
C       -0.02560000      -2.13220000      -0.86460000
C       -1.48760000      -1.72480000      -1.22400000
C       -1.33720000      -0.87010000       0.03620000
O       -2.33970000      -0.15760000       0.68490000
C        0.74090000      -0.81860000      -1.13410000
H       -0.67490000       1.67280000       0.44350000
H        1.56130000      -0.94070000       1.40800000
H        0.02870000      -0.38840000       2.16160000
H       -0.71900000      -2.79180000       1.24140000
H        0.39830000      -3.06740000      -1.22460000
H       -1.66850000      -1.24900000      -2.19330000
H       -2.19780000      -2.54500000      -1.07060000
H       -3.07560000      -0.74790000       0.87600000
H        0.55130000      -0.41510000      -2.13220000
H        1.82070000      -0.87890000      -0.97310000
