23
Properties=species:S:1:pos:R:3 gdb_84442=T pbc="F F F"
C       -0.19650000       1.54940000      -0.00840000
C        0.02580000       0.02820000       0.00650000
C        0.75440000      -0.45500000      -1.23060000
C        1.86700000      -1.17740000      -1.10120000
C        2.37870000      -1.50580000       0.29190000
C        3.64300000      -2.34460000       0.29870000
C        1.14130000      -1.95860000       1.13610000
C        0.79400000      -0.44790000       1.25790000
C        2.32200000      -0.18050000       1.11900000
H        0.75490000       2.09090000       0.00360000
H       -0.74250000       1.85890000      -0.90590000
H       -0.77820000       1.86720000       0.86370000
H       -0.96970000      -0.44340000       0.02550000
H        0.34900000      -0.19240000      -2.20460000
H        2.41980000      -1.54400000      -1.96240000
H        4.46290000      -1.82910000      -0.21540000
H        3.96990000      -2.55760000       1.32180000
H        3.48550000      -3.30330000      -0.20990000
H        0.41660000      -2.62170000       0.65520000
H        1.44550000      -2.37840000       2.10010000
H        0.29930000      -0.10900000       2.17210000
H        2.82870000      -0.28820000       2.08330000
H        2.65870000       0.73590000       0.62770000
