14
Properties=species:S:1:pos:R:3 gdb_75688=T pbc="F F F"
O        0.23300000       1.49130000      -0.04290000
C        0.11790000       0.10670000       0.00680000
C        0.23960000      -0.66720000       1.37890000
O        1.13310000      -0.86710000       2.14240000
C       -1.16970000      -1.21510000       1.23380000
N       -2.02910000      -0.02640000       1.05040000
C       -1.28930000      -0.50770000      -0.11960000
C       -2.00570000      -1.09480000      -1.26770000
O       -3.18530000      -1.36290000      -1.23290000
H       -0.44010000       1.84900000       0.55070000
H        0.83280000      -0.31840000      -0.70670000
H       -1.58520000      -2.17190000       1.52510000
H       -2.99060000      -0.35910000       0.94470000
H       -1.38710000      -1.28830000      -2.16730000
