18
Properties=species:S:1:pos:R:3 gdb_83037=T pbc="F F F"
C       -0.30270000       1.38860000       0.26690000
C       -0.04420000      -0.06520000      -0.04090000
C        0.71600000      -0.52080000      -1.25950000
C        1.35690000       0.41660000      -2.27740000
C        2.79160000       0.72910000      -1.92880000
C        3.28690000       0.56680000      -0.69880000
C        2.40960000       0.16350000       0.42950000
O        2.62660000       0.48830000       1.57810000
N        1.30380000      -0.61810000       0.07240000
H        0.43210000       2.04850000      -0.20250000
H       -1.29920000       1.67660000      -0.08310000
H       -0.25330000       1.56230000       1.34590000
H       -0.81540000      -0.74170000       0.32460000
H        0.43660000      -1.49210000      -1.66380000
H        1.31720000      -0.05130000      -3.26690000
H        0.79800000       1.35720000      -2.38070000
H        3.41440000       1.13780000      -2.72130000
H        4.30150000       0.84660000      -0.43870000
