21
Properties=species:S:1:pos:R:3 gdb_116559=T pbc="F F F"
C       -0.86440000       0.36960000       0.42860000
C        0.48690000       0.54630000      -0.26350000
N        0.65820000      -0.46270000      -1.30700000
C        1.76120000      -1.04050000      -1.42920000
O        2.94040000      -0.90190000      -0.71410000
C        3.54660000      -2.05800000      -1.39030000
C        3.81690000      -3.20170000      -0.43890000
C        2.29750000      -2.15770000      -2.31740000
N        1.61440000      -3.42750000      -2.42880000
H       -1.67750000       0.40740000      -0.30210000
H       -0.91640000      -0.59720000       0.93950000
H       -1.02500000       1.15720000       1.17180000
H        0.52060000       1.53390000      -0.74260000
H        1.30070000       0.52170000       0.47350000
H        4.46250000      -1.73900000      -1.89680000
H        2.91410000      -3.48650000       0.10930000
H        4.16770000      -4.07470000      -0.99690000
H        4.58270000      -2.91910000       0.28920000
H        2.52340000      -1.79370000      -3.32340000
H        1.08990000      -3.62480000      -1.58220000
H        0.93210000      -3.38640000      -3.17800000
