19
Properties=species:S:1:pos:R:3 gdb_99385=T pbc="F F F"
C        0.15260000       1.35520000       0.14440000
O       -0.00970000      -0.06300000       0.01050000
C       -1.28370000      -0.50230000       0.02970000
O       -2.23960000       0.22150000       0.15400000
C       -1.33410000      -2.00880000      -0.13310000
C       -2.75230000      -2.56500000      -0.00630000
C       -2.80360000      -4.08720000      -0.21320000
C       -4.22160000      -4.61220000      -0.18090000
O       -4.61220000      -5.50630000       0.52360000
H        1.22650000       1.53630000       0.10070000
H       -0.35780000       1.88050000      -0.66680000
H       -0.25550000       1.70170000       1.09720000
H       -0.90020000      -2.25380000      -1.11100000
H       -0.65950000      -2.45630000       0.60590000
H       -3.15480000      -2.30980000       0.97970000
H       -3.40050000      -2.06410000      -0.73360000
H       -2.38830000      -4.33200000      -1.20260000
H       -2.21680000      -4.62390000       0.53850000
H       -4.91540000      -4.09220000      -0.88360000
