16
Properties=species:S:1:pos:R:3 gdb_115139=T pbc="F F F"
O       -0.02890000       1.47580000      -0.17660000
C        0.05700000       0.07410000      -0.12960000
C       -1.32860000      -0.57280000       0.04580000
C       -1.35690000      -2.11640000       0.02320000
N       -2.24790000      -2.47630000       1.12010000
C       -2.60510000      -1.47440000       1.97570000
O       -3.27320000      -1.55170000       2.97840000
C       -1.95050000      -0.20830000       1.38360000
O       -1.91210000       0.86620000       1.92870000
H       -0.50030000       1.75290000       0.62180000
H        0.50120000      -0.25460000      -1.07560000
H        0.71990000      -0.27540000       0.68060000
H       -1.98640000      -0.17060000      -0.73480000
H       -1.72980000      -2.50840000      -0.92770000
H       -0.35140000      -2.52900000       0.18220000
H       -2.50600000      -3.43100000       1.31740000
