19
Properties=species:S:1:pos:R:3 gdb_69562=T pbc="F F F"
O       -0.07590000       1.43560000       0.07500000
C       -0.00180000       0.05330000       0.07010000
C       -0.29310000      -0.75880000      -1.15860000
C       -1.16130000      -0.93550000       0.06810000
C       -0.46990000      -1.76620000       1.16630000
O       -1.34340000      -1.94520000       2.24080000
C        0.50250000      -2.92570000       0.77570000
C        1.69450000      -1.91170000       0.75260000
C        0.73050000      -0.76100000       1.16850000
H        0.62810000       1.77930000      -0.48640000
H       -0.77710000      -0.18700000      -1.94480000
H        0.36220000      -1.54450000      -1.52280000
H       -2.23130000      -0.76940000       0.04320000
H       -0.84330000      -2.30150000       2.98280000
H        0.58760000      -3.66430000       1.57940000
H        0.28410000      -3.46260000      -0.15100000
H        2.46180000      -2.12780000       1.49970000
H        2.19100000      -1.78600000      -0.21260000
H        0.96100000      -0.17490000       2.05840000
