22
Properties=species:S:1:pos:R:3 gdb_82093=T pbc="F F F"
C       -0.43630000       1.43460000       0.65550000
C       -0.10090000      -0.00720000       0.29370000
C        0.18860000      -0.36250000      -1.17310000
C        1.46500000       0.27050000      -1.65030000
C        1.54620000      -0.96040000      -0.79240000
C        1.30940000      -0.60330000       0.67750000
N        2.26440000       0.32030000       1.26600000
C        2.35450000       0.32020000       2.72290000
C        3.43440000      -0.28360000       1.89580000
H        0.33510000       2.12850000       0.31420000
H       -1.38820000       1.73060000       0.20040000
H       -0.53320000       1.55690000       1.73960000
H       -0.87720000      -0.66980000       0.68980000
H       -0.54350000      -0.75540000      -1.86890000
H        1.68930000       0.11040000      -2.70010000
H        1.80280000       1.22500000      -1.26040000
H        2.00890000      -1.87610000      -1.14030000
H        1.19200000      -1.50890000       1.29580000
H        2.49240000       1.29110000       3.19010000
H        1.71020000      -0.36350000       3.27440000
H        3.51030000      -1.37030000       1.89430000
H        4.37570000       0.23750000       1.74690000
