16
Properties=species:S:1:pos:R:3 gdb_45857=T pbc="F F F"
O       -0.03530000       0.20990000       0.77670000
C       -0.03190000       1.28560000       0.21950000
C       -1.28800000       1.88510000      -0.39240000
N       -1.15810000       3.18080000      -1.03380000
C       -0.03100000       3.74630000      -1.05740000
O        1.16040000       3.33800000      -0.56020000
C        1.22200000       2.08700000       0.10380000
C        2.22000000       2.01720000       1.24140000
C        2.53130000       1.34250000      -0.05860000
H       -1.68510000       1.15830000      -1.11350000
H       -2.04710000       1.94330000       0.39900000
H        0.09490000       4.71730000      -1.53120000
H        2.72870000       2.94680000       1.46780000
H        1.93750000       1.39970000       2.08550000
H        2.46220000       0.26240000      -0.10590000
H        3.25200000       1.81280000      -0.71720000
