23
Properties=species:S:1:pos:R:3 gdb_57331=T pbc="F F F"
C       -0.08270000       1.56400000       0.07020000
C       -0.00870000       0.02640000       0.04210000
C        0.74190000      -0.48000000       1.28810000
C       -1.44280000      -0.54050000       0.06830000
C        0.72380000      -0.48420000      -1.26270000
C        2.20390000      -0.07430000      -1.33870000
O        0.74800000      -1.92030000      -1.28320000
C        0.03030000       0.00150000      -2.46890000
C       -0.53310000       0.36230000      -3.46870000
H        0.91030000       2.02150000       0.10760000
H       -0.60640000       1.95750000      -0.80550000
H       -0.62520000       1.89250000       0.96290000
H        0.14420000      -0.28810000       2.18520000
H        0.92510000      -1.55540000       1.22180000
H        1.70190000       0.02630000       1.42330000
H       -2.00660000      -0.25070000      -0.82360000
H       -1.44120000      -1.63270000       0.14060000
H       -1.98000000      -0.16030000       0.94280000
H        2.75910000      -0.52400000      -0.51340000
H        2.62600000      -0.44320000      -2.27560000
H        2.32380000       1.00970000      -1.30640000
H       -0.12470000      -2.22670000      -1.54920000
H       -1.02640000       0.68480000      -4.35250000
