20
Properties=species:S:1:pos:R:3 gdb_80360=T pbc="F F F"
C       -0.40680000       1.44070000      -0.08210000
C       -0.00780000      -0.01690000      -0.07440000
C        0.65440000      -0.74990000      -1.17040000
C        1.69690000       0.09380000      -1.89620000
C        2.41960000       0.23770000      -0.51790000
C        3.71120000      -0.58430000      -0.45020000
C        2.66600000       1.57520000       0.00270000
C        2.93440000       2.66600000       0.43300000
N        1.33930000      -0.58160000       0.18780000
H        0.21720000       2.06070000      -0.72540000
H       -1.44230000       1.51990000      -0.43190000
H       -0.35950000       1.86070000       0.92720000
H       -0.72270000      -0.63320000       0.46980000
H        0.31450000      -1.72420000      -1.50820000
H        2.29770000      -0.46160000      -2.61830000
H        1.33520000       1.00960000      -2.36940000
H        4.49350000      -0.11880000      -1.05670000
H        4.05780000      -0.65110000       0.58400000
H        3.52540000      -1.59720000      -0.81820000
H        3.15010000       3.63290000       0.81610000
