16
Properties=species:S:1:pos:R:3 gdb_73915=T pbc="F F F"
C       -0.04010000       1.51700000       0.11250000
C       -0.02570000       0.02930000       0.02180000
C       -0.01050000      -0.73790000      -1.08830000
C       -0.02530000      -2.22980000      -0.77970000
C        0.03510000      -2.25310000       0.74030000
O        1.21370000      -1.66200000       1.28530000
C        0.01270000      -0.86130000       1.22460000
C        0.04190000      -0.24420000      -2.41820000
N        0.07140000       0.14060000      -3.51150000
H        0.85690000       1.87980000       0.62890000
H       -0.08600000       1.98180000      -0.87460000
H       -0.90100000       1.86100000       0.69910000
H       -0.93910000      -2.70700000      -1.15230000
H        0.82480000      -2.75250000      -1.23110000
H       -0.37710000      -3.08570000       1.30260000
H       -0.38670000      -0.54540000       2.18360000
