18
Properties=species:S:1:pos:R:3 gdb_54030=T pbc="F F F"
C        0.32580000       0.61150000       1.06740000
C       -0.23960000       0.25660000      -0.28700000
O        0.10280000       0.80760000      -1.30900000
C       -1.30170000      -0.84930000      -0.37230000
C       -1.19780000      -1.52830000      -1.74340000
O       -2.14790000      -1.73870000      -2.44770000
N       -1.13290000      -1.87060000       0.66000000
C       -1.95860000      -1.72880000       1.86330000
C       -2.27590000      -2.77000000       0.85350000
H        1.04740000       1.42190000       0.96020000
H       -0.47490000       0.91400000       1.75150000
H        0.80170000      -0.26990000       1.50830000
H       -2.29350000      -0.36330000      -0.33520000
H       -0.17500000      -1.85670000      -2.01830000
H       -1.47170000      -1.99390000       2.79680000
H       -2.62650000      -0.87140000       1.92310000
H       -3.15050000      -2.61620000       0.22600000
H       -2.02010000      -3.80890000       1.03640000
