16
Properties=species:S:1:pos:R:3 gdb_5112=T pbc="F F F"
C       -0.06190000       1.45460000       0.03910000
N        0.01830000       0.00960000       0.00710000
C        0.00380000      -0.79730000      -1.13340000
N       -0.11730000      -0.18740000      -2.40400000
C        0.08600000      -2.10330000      -0.71870000
C        0.15480000      -2.11420000       0.70880000
C        0.11590000      -0.79860000       1.10230000
O        0.15530000      -0.19190000       2.32080000
H        0.87810000       1.89890000       0.38400000
H       -0.27170000       1.79350000      -0.97550000
H       -0.86140000       1.77950000       0.71080000
H        0.74790000      -0.22020000      -2.93390000
H       -0.83480000      -0.63390000      -2.96300000
H        0.09720000      -2.96630000      -1.36750000
H        0.22830000      -2.97420000       1.35660000
H        0.21680000      -0.87800000       2.99180000
