17
Properties=species:S:1:pos:R:3 gdb_44090=T pbc="F F F"
O        0.00800000       0.04560000       0.15520000
C       -0.01500000       1.23850000       0.06810000
C       -1.15860000       2.28300000       0.07140000
C       -0.07660000       3.34300000       0.26070000
O       -0.11260000       4.66840000      -0.22120000
C        0.72880000       5.10240000       0.88820000
C        0.63830000       3.71740000       1.58060000
C        1.78250000       2.70720000       1.29480000
C        1.08380000       2.31750000      -0.04540000
H       -1.59340000       2.34990000      -0.93490000
H       -1.96480000       2.17760000       0.80160000
H        1.72980000       5.39430000       0.54780000
H        0.26680000       5.93630000       1.42490000
H        0.14970000       3.70370000       2.55510000
H        2.77070000       3.15730000       1.16790000
H        1.86710000       1.89120000       2.01680000
H        1.66820000       2.29770000      -0.96700000
