18
Properties=species:S:1:pos:R:3 gdb_79097=T pbc="F F F"
C       -0.23660000       1.57950000       0.13720000
C        0.06270000       0.09110000       0.00680000
C        0.68080000      -0.50640000      -1.25340000
C        2.16560000      -0.42570000      -1.31400000
C        2.96390000       0.56220000      -0.49500000
C        2.39400000       0.36950000       0.91790000
O        2.76590000       0.90760000       1.92690000
C        1.24200000      -0.60850000       0.77130000
N        1.53720000      -1.46760000      -0.44970000
H        0.62880000       2.20640000      -0.09300000
H       -1.04260000       1.86390000      -0.54770000
H       -0.56230000       1.82280000       1.15380000
H       -0.84090000      -0.48170000       0.23690000
H        0.11410000      -0.84820000      -2.11530000
H        2.61770000      -0.83760000      -2.21080000
H        4.02900000       0.30490000      -0.49640000
H        2.88130000       1.60810000      -0.80550000
H        1.00350000      -1.16030000       1.67770000
