17
Properties=species:S:1:pos:R:3 gdb_6151=T pbc="F F F"
C        0.23620000       1.44620000       0.05080000
C       -0.13630000      -0.02610000      -0.03450000
O       -1.51770000      -0.21450000      -0.23660000
C        0.79620000      -0.88360000      -0.96800000
N        1.29210000      -1.54980000       0.23490000
C        0.35780000      -0.90370000       1.15300000
C        2.22030000      -2.50300000       0.46140000
O        2.46790000      -2.97850000       1.55110000
H        1.30270000       1.57290000       0.25890000
H        0.01920000       1.95770000      -0.89540000
H       -0.33410000       1.93490000       0.84660000
H       -1.81080000       0.38700000      -0.92960000
H        0.22740000      -1.53770000      -1.63840000
H        1.55480000      -0.33470000      -1.53720000
H        0.83270000      -0.37710000       1.98600000
H       -0.41680000      -1.57500000       1.53640000
H        2.74500000      -2.79810000      -0.47140000
