18
Properties=species:S:1:pos:R:3 gdb_98986=T pbc="F F F"
C       -0.15910000       1.42430000      -0.26340000
C        0.05250000      -0.05340000       0.05410000
C        0.82040000      -0.26400000       1.35760000
O        1.21470000       0.63280000       2.05680000
N        1.01400000      -1.62060000       1.64720000
C        1.66870000      -2.16010000       2.75020000
O        2.18830000      -1.56640000       3.65200000
O        1.61870000      -3.51130000       2.62960000
C        2.25510000      -4.22470000       3.69580000
H        0.79800000       1.94270000      -0.35630000
H       -0.71070000       1.53880000      -1.20050000
H       -0.72000000       1.91680000       0.53420000
H       -0.90860000      -0.57950000       0.13150000
H        0.60240000      -0.55360000      -0.75450000
H        0.64430000      -2.29910000       0.99890000
H        3.31550000      -3.96700000       3.75390000
H        1.78300000      -3.99040000       4.65310000
H        2.13150000      -5.28110000       3.45760000
