20
Properties=species:S:1:pos:R:3 gdb_71257=T pbc="F F F"
C        0.06290000       1.54920000       0.01090000
C        0.01430000       0.04460000      -0.04230000
C        0.41370000      -0.82690000      -1.23020000
N       -0.32180000      -1.96610000      -0.55110000
C        0.59190000      -2.16520000       0.61600000
C        0.38430000      -0.78550000       1.27410000
O        1.32970000      -0.24980000       2.14420000
C       -1.13530000      -0.88120000       1.59640000
C       -1.24660000      -0.86600000       0.07250000
H        1.09950000       1.89870000       0.06810000
H       -0.39500000       1.99160000      -0.88040000
H       -0.45840000       1.94230000       0.88980000
H       -0.10910000      -0.53810000      -2.14790000
H        1.46640000      -1.02770000      -1.45710000
H        0.26150000      -2.99950000       1.24300000
H        1.61440000      -2.35570000       0.28100000
H        1.41610000      -0.83420000       2.90520000
H       -1.50060000      -1.74030000       2.16750000
H       -1.53310000       0.04830000       2.01160000
H       -2.17260000      -0.72930000      -0.48240000
