17
Properties=species:S:1:pos:R:3 gdb_70067=T pbc="F F F"
C       -0.05790000       1.52940000       0.03900000
C        0.01960000       0.02020000       0.06680000
C       -1.05800000      -0.72160000      -0.69750000
C       -1.07920000      -2.24120000      -0.51910000
O       -1.58640000      -2.95930000      -1.35560000
C       -0.53600000      -2.78250000       0.74570000
C        0.23880000      -2.05170000       1.55660000
C        0.66240000      -0.67640000       1.20320000
O        1.33360000      -0.52420000      -0.06830000
H        0.77580000       1.96690000       0.59320000
H       -0.01070000       1.89440000      -0.99280000
H       -0.99710000       1.88170000       0.47770000
H       -2.04280000      -0.35690000      -0.37360000
H       -0.98900000      -0.50770000      -1.76880000
H       -0.79420000      -3.81300000       0.96690000
H        0.60770000      -2.46430000       2.49170000
H        1.09970000      -0.08080000       2.00230000
