21
Properties=species:S:1:pos:R:3 gdb_101949=T pbc="F F F"
C       -0.25850000       0.11710000      -0.89170000
O       -0.18060000      -0.83100000       0.15130000
C        0.73690000      -0.52840000       1.18800000
C        0.43720000      -1.47610000       2.34060000
C       -0.95410000      -1.86200000       2.66750000
N       -0.02630000      -2.84380000       2.07090000
C        2.18240000      -0.65980000       0.73530000
C        2.93770000       0.51900000       0.24060000
N        3.25110000      -0.06540000       1.55430000
H        0.66580000       0.16440000      -1.48100000
H       -1.07790000      -0.19600000      -1.54310000
H       -0.47820000       1.12370000      -0.50440000
H        0.58120000       0.51200000       1.53330000
H        1.16570000      -1.40960000       3.14610000
H       -1.23290000      -2.06000000       3.69870000
H       -1.74340000      -1.46260000       2.03880000
H       -0.23990000      -2.91180000       1.07760000
H        2.43190000      -1.64350000       0.34260000
H        3.71100000       0.39510000      -0.51210000
H        2.42320000       1.47680000       0.20770000
H        2.84380000       0.50900000       2.29060000
