15
Properties=species:S:1:pos:R:3 gdb_31413=T pbc="F F F"
C        0.04760000       1.50590000       0.03900000
N        0.17010000       0.06120000       0.00410000
C        0.63000000      -0.67760000      -1.03290000
C        0.71300000      -2.05450000      -0.97850000
C        1.19800000      -2.80920000      -2.07690000
O        1.34490000      -3.98870000      -2.22490000
O        1.57760000      -1.97560000      -3.21370000
C        1.45030000      -0.66420000      -3.14180000
N        1.01380000       0.03340000      -2.15670000
H        0.66060000       1.93220000       0.84140000
H        0.38750000       1.90450000      -0.91500000
H       -0.99400000       1.80720000       0.19970000
H       -0.11060000      -0.45050000       0.82470000
H        0.41280000      -2.61070000      -0.09950000
H        1.76930000      -0.16950000      -4.05690000
