18
Properties=species:S:1:pos:R:3 gdb_87266=T pbc="F F F"
O       -0.46830000       1.29310000       0.28290000
C       -0.22760000      -0.07130000       0.19480000
C       -0.86690000      -1.03660000       1.17080000
C       -1.35960000      -0.95210000      -0.26900000
O       -2.51600000      -0.21250000      -0.51400000
C       -1.10420000      -2.09970000      -1.21160000
O       -1.63980000      -3.38470000      -0.78380000
C       -2.95400000      -3.54210000      -0.68680000
N       -3.81580000      -2.61790000      -0.82690000
H       -1.39120000       1.41630000       0.01750000
H        0.78030000      -0.28900000      -0.14980000
H       -0.31080000      -1.91370000       1.48600000
H       -1.52490000      -0.60470000       1.91630000
H       -3.23830000      -0.86900000      -0.60610000
H       -1.51710000      -1.86350000      -2.19760000
H       -0.03610000      -2.30490000      -1.30110000
H       -3.17970000      -4.58950000      -0.46810000
H       -4.75960000      -2.97800000      -0.71870000
