14
Properties=species:S:1:pos:R:3 gdb_82023=T pbc="F F F"
O        0.00690000       1.41130000       0.06830000
C        0.01160000       0.01960000       0.02630000
C       -1.37830000      -0.60370000      -0.01010000
O       -2.01250000      -0.16520000      -1.22210000
C       -1.12560000      -1.27740000      -1.29730000
C        0.27850000      -0.63010000      -1.42850000
O        0.44210000       0.29130000      -2.45950000
C        1.37660000      -1.58870000      -1.43330000
N        2.22110000      -2.37550000      -1.37800000
H        0.91410000       1.72380000      -0.02080000
H        0.65240000      -0.44310000       0.78680000
H       -2.02300000      -0.88310000       0.81310000
H       -1.49280000      -2.21050000      -1.70610000
H       -0.30430000       0.90180000      -2.37100000
