21
Properties=species:S:1:pos:R:3 gdb_62951=T pbc="F F F"
C       -0.03520000       1.56710000      -0.07420000
C        0.00480000       0.04440000      -0.00050000
C       -1.37830000      -0.57930000      -0.19170000
C        1.05840000      -0.65650000      -0.89610000
N        2.39520000      -0.17520000      -0.47950000
C        1.73240000      -1.27200000       0.27880000
C        0.76660000      -0.58500000       1.21810000
C        0.99000000      -0.04750000       2.57220000
N        0.16860000      -1.26360000       2.36100000
H        0.97340000       1.97900000       0.00010000
H       -0.47840000       1.90080000      -1.01980000
H       -0.64320000       1.98550000       0.73670000
H       -1.79810000      -0.29220000      -1.16240000
H       -1.33640000      -1.67240000      -0.14940000
H       -2.07980000      -0.23620000       0.57750000
H        0.88980000      -1.05810000      -1.88870000
H        3.07640000      -0.61200000      -1.10030000
H        2.19540000      -2.24320000       0.40070000
H        1.93540000      -0.21460000       3.08120000
H        0.48620000       0.87690000       2.84410000
H       -0.82030000      -1.03480000       2.43470000
