17
Properties=species:S:1:pos:R:3 gdb_74381=T pbc="F F F"
N        0.07350000       1.43160000      -0.21170000
C       -0.02670000       0.05830000      -0.14420000
N       -1.17150000      -0.50510000      -0.15320000
C       -1.22780000      -1.94230000       0.07300000
C        0.05740000      -2.53750000       0.64790000
O        1.17070000      -2.05900000      -0.09420000
C        1.30020000      -0.66530000       0.02530000
C       -2.43920000      -2.24270000       0.94560000
O       -2.49180000      -3.14530000       1.74150000
H        0.89380000       1.81460000      -0.65620000
H       -0.78900000       1.89660000      -0.45820000
H       -1.44360000      -2.43110000      -0.89400000
H        0.15520000      -2.27060000       1.71160000
H        0.06600000      -3.62530000       0.56920000
H        2.00620000      -0.34270000      -0.74910000
H        1.73040000      -0.38200000       1.00200000
H       -3.28880000      -1.54510000       0.77980000
