19
Properties=species:S:1:pos:R:3 gdb_90645=T pbc="F F F"
C       -0.21280000       1.36680000      -0.01680000
N        0.10380000      -0.04520000       0.07230000
C        1.15450000      -0.54540000      -0.86470000
C        1.94570000      -1.12530000       0.31120000
C        0.93350000      -0.45360000       1.21130000
C        1.04390000      -1.97610000       1.21520000
C       -0.06170000      -2.88730000       0.70850000
C        1.76110000      -2.48160000       2.36200000
N        2.32700000      -2.89370000       3.28360000
H        0.67420000       2.02540000       0.02760000
H       -0.73290000       1.56010000      -0.96000000
H       -0.88640000       1.64420000       0.80040000
H        0.79120000      -1.22680000      -1.64130000
H        1.70920000       0.27740000      -1.33180000
H        3.02270000      -1.19490000       0.37940000
H        1.04070000       0.14830000       2.10620000
H       -0.69540000      -2.34090000       0.00830000
H        0.35190000      -3.77130000       0.21480000
H       -0.68600000      -3.22350000       1.54100000
