21
Properties=species:S:1:pos:R:3 gdb_94675=T pbc="F F F"
C       -0.12950000       1.50790000       0.05670000
C        0.25280000       0.05620000      -0.02390000
C        0.72620000      -0.53010000      -1.34580000
C        1.16500000      -1.96450000      -0.98030000
C        1.63220000      -1.88280000       0.48840000
O        2.99110000      -1.46470000       0.61220000
C        0.79370000      -0.75580000       1.08500000
C        1.08560000      -0.29270000       2.48430000
O       -0.58720000      -0.87430000       0.69840000
H        0.70520000       2.14370000      -0.25710000
H       -0.97670000       1.71720000      -0.60600000
H       -0.42070000       1.78790000       1.07110000
H       -0.05660000      -0.51150000      -2.11110000
H        1.56890000       0.06350000      -1.71820000
H        0.31570000      -2.64740000      -1.05300000
H        1.95900000      -2.34630000      -1.62890000
H        1.47120000      -2.83070000       1.02320000
H        3.54900000      -2.16640000       0.26360000
H        2.14370000      -0.03740000       2.58060000
H        0.47910000       0.57480000       2.75290000
H        0.86350000      -1.09200000       3.20060000
