21
Properties=species:S:1:pos:R:3 gdb_118511=T pbc="F F F"
C       -0.03060000       1.40960000      -0.24150000
O        0.05110000       0.01510000      -0.06080000
C        0.56940000      -0.65310000      -1.19130000
C        0.54520000      -2.16300000      -0.94520000
O       -0.76950000      -2.67820000      -0.96940000
C       -1.44990000      -2.66020000       0.27190000
C        1.37510000      -2.86390000      -2.00730000
C        0.94200000      -4.10040000      -2.66270000
O        0.86980000      -2.84240000      -3.34250000
H        0.95900000       1.85240000      -0.43660000
H       -0.69510000       1.67430000      -1.07850000
H       -0.43300000       1.83670000       0.68020000
H       -0.02900000      -0.43830000      -2.08950000
H        1.60420000      -0.32250000      -1.38890000
H        1.01610000      -2.36030000       0.03240000
H       -2.41430000      -3.14770000       0.10700000
H       -0.89720000      -3.22370000       1.03980000
H       -1.61080000      -1.64000000       0.63440000
H        2.44570000      -2.66290000      -1.93280000
H        1.68970000      -4.79410000      -3.04510000
H       -0.01760000      -4.52710000      -2.38640000
