13
Properties=species:S:1:pos:R:3 gdb_133512=T pbc="F F F"
F        0.03720000       0.02710000       0.00710000
C        0.08500000       1.34750000       0.05270000
F        1.32540000       1.72670000       0.39660000
F       -0.16650000       1.83550000      -1.17130000
C       -0.93250000       1.92950000       1.06530000
O       -1.60070000       1.19790000       1.75320000
C       -1.00250000       3.41220000       1.11390000
C       -2.38600000       4.00120000       1.07550000
N       -1.61810000       4.01240000       2.30710000
H       -0.17740000       3.96120000       0.67430000
H       -2.51530000       4.96440000       0.59140000
H       -3.21380000       3.30460000       0.97740000
H       -1.93440000       3.24730000       2.90410000
