10
Properties=species:S:1:pos:R:3 gdb_23999=T pbc="F F F"
N        0.18930000      -1.09740000      -0.00570000
C        0.07710000       0.05480000       0.00210000
C       -0.09780000       1.45340000       0.01210000
C       -1.20160000       2.26090000       0.03220000
N       -0.79900000       3.57230000       0.03360000
C        0.50180000       3.51100000       0.01480000
O        1.00800000       2.25560000       0.00080000
C        1.42190000       4.59140000       0.00750000
N        2.17200000       5.47100000       0.00170000
H       -2.24080000       1.97490000       0.04540000
