21
Properties=species:S:1:pos:R:3 gdb_101754=T pbc="F F F"
C       -0.11210000       1.42850000      -0.13830000
C       -0.09670000      -0.01970000       0.00410000
C       -0.08940000      -1.21750000       0.11840000
C       -0.05690000      -2.66580000       0.26850000
O       -1.33170000      -3.20870000      -0.03300000
C       -1.39710000      -4.63560000      -0.06280000
C       -1.34490000      -5.25090000       1.33670000
C       -2.71810000      -4.93080000      -0.77850000
O       -3.81700000      -4.35430000      -0.10030000
H        0.72700000       1.77710000      -0.75010000
H       -1.03570000       1.76400000      -0.62250000
H       -0.04670000       1.92800000       0.83440000
H        0.70260000      -3.09760000      -0.40560000
H        0.24960000      -2.92230000       1.29460000
H       -0.56770000      -5.02580000      -0.67660000
H       -2.20970000      -4.92210000       1.91790000
H       -1.37070000      -6.34310000       1.26630000
H       -0.43140000      -4.97760000       1.87180000
H       -2.64710000      -4.56120000      -1.81290000
H       -2.89240000      -6.01130000      -0.81360000
H       -3.58780000      -3.42480000       0.02140000
