17
Properties=species:S:1:pos:R:3 gdb_119815=T pbc="F F F"
C       -0.12610000       1.50810000       0.01240000
C        0.00480000      -0.00140000       0.00360000
O       -1.33120000      -0.55300000       0.01040000
C       -1.40120000      -1.87810000       0.00490000
N       -0.43600000      -2.71460000      -0.00570000
C       -1.06860000      -4.03500000      -0.00720000
C       -2.58930000      -3.80140000       0.00440000
O       -3.50080000      -4.58840000       0.00750000
N       -2.68520000      -2.41320000       0.01150000
H        0.86900000       1.96230000       0.00740000
H       -0.66970000       1.85930000      -0.86910000
H       -0.65650000       1.85010000       0.90550000
H        0.52810000      -0.36780000      -0.88480000
H        0.54090000      -0.37700000       0.88040000
H       -0.78650000      -4.61660000      -0.89230000
H       -0.77420000      -4.62430000       0.86890000
H       -3.54370000      -1.88710000       0.02010000
