16
Properties=species:S:1:pos:R:3 gdb_43450=T pbc="F F F"
N       -0.17240000       1.28250000      -0.08760000
C       -0.04820000       0.02190000      -0.00230000
N        1.09320000      -0.77070000       0.04260000
C        0.85970000      -2.14540000       0.02830000
O        1.72070000      -2.98610000       0.06480000
C       -0.65370000      -2.33330000      -0.05350000
C       -1.21480000      -0.92390000       0.03610000
C       -2.42980000      -0.51840000       0.79510000
N       -2.44190000      -0.54710000      -0.66980000
H        0.72150000       1.77120000      -0.11810000
H        2.03490000      -0.40660000       0.05100000
H       -0.90470000      -2.81060000      -1.00580000
H       -0.98550000      -2.99990000       0.74620000
H       -3.02670000      -1.28900000       1.27610000
H       -2.40000000       0.44470000       1.29590000
H       -2.31650000       0.40440000      -1.01670000
