17
Properties=species:S:1:pos:R:3 gdb_42809=T pbc="F F F"
O        0.03570000      -0.00310000       0.01100000
C       -0.00680000       1.18940000      -0.02810000
C       -1.09390000       2.27840000       0.05270000
C       -0.05510000       2.99500000       0.98030000
C        1.01200000       2.34620000       0.03940000
C        0.71640000       3.05550000      -1.31710000
C       -0.86900000       3.00540000      -1.29010000
C        1.26340000       4.39930000      -1.40460000
C        1.70870000       5.51460000      -1.46900000
H       -2.11600000       2.06530000       0.35760000
H       -0.08180000       4.08640000       0.98990000
H       -0.03220000       2.59410000       1.99450000
H        2.05360000       2.20740000       0.31780000
H        1.10640000       2.45770000      -2.14740000
H       -1.27280000       2.45630000      -2.14380000
H       -1.29770000       4.00930000      -1.28870000
H        2.10750000       6.49650000      -1.53550000
