18
Properties=species:S:1:pos:R:3 gdb_26574=T pbc="F F F"
C        0.06000000       1.54030000       0.08610000
C       -0.00330000       0.03170000       0.02540000
C       -1.17670000      -0.65800000      -0.01260000
C       -2.53970000      -0.02840000       0.00080000
C       -1.17060000      -2.11750000      -0.07030000
N       -2.23430000      -2.81550000      -0.10910000
O        0.07100000      -2.75380000      -0.08240000
C        1.21640000      -2.04410000      -0.04250000
C        1.23970000      -0.70480000       0.00980000
H        1.09540000       1.88830000       0.06890000
H       -0.46080000       2.00070000      -0.75960000
H       -0.40520000       1.92610000       0.99950000
H       -3.10400000      -0.32000000      -0.89130000
H       -3.12130000      -0.39730000       0.85220000
H       -2.49140000       1.06010000       0.05010000
H       -2.00980000      -3.80970000      -0.14620000
H        2.08720000      -2.68770000      -0.05870000
H        2.19010000      -0.18760000       0.03960000
