16
Properties=species:S:1:pos:R:3 gdb_123435=T pbc="F F F"
C       -0.07870000       1.60480000       0.29810000
C       -0.17910000       0.08520000       0.31230000
C       -1.35110000      -0.57930000      -0.30820000
N       -0.02150000      -0.67060000      -0.93450000
C        1.31680000       2.06390000       0.03840000
N        1.86480000       2.34810000      -1.10780000
C        3.15240000       2.64700000      -0.73590000
N        3.39970000       2.56270000       0.54150000
O        2.16270000       2.16820000       1.07090000
H       -0.71100000       2.01300000      -0.49540000
H       -0.42310000       2.01110000       1.25460000
H        0.29880000      -0.38510000       1.16910000
H       -1.73100000      -1.51100000       0.10060000
H       -2.10650000       0.05440000      -0.76700000
H        0.04950000      -0.03160000      -1.72380000
H        3.92200000       2.93820000      -1.43590000
