21
Properties=species:S:1:pos:R:3 gdb_68852=T pbc="F F F"
C       -0.03770000       1.51150000      -0.02740000
C       -0.01440000       0.00210000       0.01130000
C        1.20770000      -0.74770000      -0.49970000
C        0.86900000      -0.76450000       0.97370000
O        1.67680000      -0.04470000       1.85860000
C        0.13430000      -1.99630000       1.50960000
C       -1.21990000      -1.98090000       0.79990000
C       -2.15340000      -0.84170000       1.13370000
C       -1.30200000      -0.76950000      -0.10870000
H        0.93080000       1.92090000       0.27110000
H       -0.27340000       1.87940000      -1.03250000
H       -0.79450000       1.90760000       0.65850000
H        1.06960000      -1.65010000      -1.08810000
H        2.06010000      -0.13930000      -0.78520000
H        2.53180000      -0.48500000       1.90890000
H        0.68360000      -2.92320000       1.30230000
H        0.03430000      -1.91310000       2.59800000
H       -1.65850000      -2.92470000       0.49690000
H       -3.21760000      -1.01050000       1.00950000
H       -1.89590000      -0.19860000       1.97040000
H       -1.78530000      -0.83420000      -1.07930000
