16
Properties=species:S:1:pos:R:3 gdb_26437=T pbc="F F F"
C       -1.34440000       0.50590000       0.38240000
N       -0.06740000      -0.09880000       0.03960000
C        0.99790000       0.01780000       0.91800000
O        0.93270000       0.60370000       1.97510000
C        0.08110000      -0.78870000      -1.16180000
N        1.17610000      -1.37290000      -1.58700000
C        0.84180000      -1.91730000      -2.81020000
C       -0.46080000      -1.65810000      -3.12030000
N       -0.94890000      -0.92530000      -2.04640000
H       -1.63480000       1.26220000      -0.35610000
H       -2.13390000      -0.25130000       0.45480000
H       -1.21800000       0.98410000       1.35310000
H        1.89640000      -0.48410000       0.53410000
H        1.56810000      -2.46440000      -3.39080000
H       -1.08150000      -1.90600000      -3.96400000
H       -1.88290000      -0.56810000      -1.94780000
