21
Properties=species:S:1:pos:R:3 gdb_58599=T pbc="F F F"
C       -1.39850000      -0.02760000      -0.13180000
C        0.11580000      -0.10890000       0.08630000
O        0.41480000      -0.92980000       1.21440000
C        0.85950000      -0.69270000      -1.11190000
C        0.71730000       0.10200000      -2.41120000
C        1.17560000       1.48660000      -2.31430000
C        1.54840000       2.62620000      -2.22620000
C        2.17990000      -1.37980000      -0.87760000
C        0.95830000      -2.19240000      -1.24270000
H       -1.65240000       0.65840000      -0.94520000
H       -1.80890000      -1.01600000      -0.36010000
H       -1.89230000       0.34910000       0.77160000
H        0.50390000       0.90790000       0.25500000
H       -0.04690000      -0.56310000       1.97370000
H        1.28930000      -0.40970000      -3.19460000
H       -0.32650000       0.09160000      -2.75100000
H        1.88280000       3.63140000      -2.15560000
H        2.95480000      -1.24760000      -1.62550000
H        2.53420000      -1.45080000       0.14260000
H        0.51200000      -2.78880000      -0.45640000
H        0.89980000      -2.62700000      -2.23550000
