16
Properties=species:S:1:pos:R:3 gdb_107537=T pbc="F F F"
O       -0.05250000       1.45260000       0.19870000
C        0.03410000       0.05420000      -0.00030000
C       -1.31900000      -0.56510000      -0.14610000
O       -2.07510000      -0.82450000       1.04240000
C       -1.88160000      -1.90100000       0.11710000
C       -2.94760000      -1.74620000      -0.97340000
C       -2.35590000      -0.31220000      -1.27410000
C       -3.23160000       0.83640000      -1.10800000
N       -3.93760000       1.74170000      -0.97430000
H       -0.57470000       1.60680000       0.99410000
H        0.61210000      -0.08460000      -0.92000000
H        0.56680000      -0.45580000       0.81620000
H       -1.41400000      -2.80270000       0.49430000
H       -2.82130000      -2.42170000      -1.82120000
H       -3.97860000      -1.77480000      -0.61890000
H       -1.88330000      -0.27640000      -2.25880000
