17
Properties=species:S:1:pos:R:3 gdb_66861=T pbc="F F F"
O       -0.08070000       1.39270000      -0.00120000
C       -0.01360000       0.01040000       0.00790000
C       -1.33970000      -0.76250000      -0.01620000
C       -0.85210000      -2.04970000      -0.58110000
O        0.24350000      -1.89700000      -1.45190000
C        0.99250000      -0.80440000      -0.94240000
C        1.79720000      -1.24030000       0.31380000
C        0.55070000      -0.89410000       1.15800000
C       -0.67510000      -1.80970000       0.90550000
H        0.80650000       1.75020000       0.11250000
H       -2.33940000      -0.35240000      -0.06370000
H       -1.53290000      -2.82760000      -0.90360000
H        1.50400000      -0.30320000      -1.76730000
H        2.16420000      -2.26890000       0.30540000
H        2.62710000      -0.55740000       0.52630000
H        0.63800000      -0.53090000       2.18290000
H       -1.13260000      -2.46050000       1.64160000
