18
Properties=species:S:1:pos:R:3 gdb_96691=T pbc="F F F"
C        0.31970000       1.38150000      -0.03790000
N        0.10350000      -0.05510000      -0.00780000
C       -1.05810000      -0.59570000      -0.01380000
C       -2.31500000       0.24650000      -0.03270000
O       -3.42250000      -0.08170000       0.31520000
N       -1.13010000      -1.98400000       0.05260000
C        0.13730000      -2.70210000       0.20340000
C       -2.29820000      -2.71920000      -0.13030000
N       -2.28530000      -3.99330000      -0.14420000
H       -0.03760000       1.84900000      -0.96590000
H       -0.14230000       1.91050000       0.80570000
H        1.39630000       1.56220000       0.01810000
H       -2.11920000       1.27910000      -0.37420000
H        0.67110000      -2.32010000       1.07560000
H       -0.09670000      -3.75780000       0.31440000
H        0.77260000      -2.54270000      -0.67230000
H       -3.18280000      -2.10040000      -0.24040000
H       -3.23150000      -4.34180000      -0.28100000
