16
Properties=species:S:1:pos:R:3 gdb_28621=T pbc="F F F"
N       -0.02740000       1.40970000       0.14510000
C       -0.00220000       0.03140000       0.05820000
C       -1.19730000      -0.70870000       0.04540000
C       -1.15860000      -2.09200000       0.01150000
C        0.05960000      -2.78040000      -0.01270000
C        0.08600000      -4.24740000      -0.05270000
O        1.08790000      -4.92980000      -0.07850000
C        1.25160000      -2.03960000      -0.00090000
C        1.22590000      -0.66030000       0.03380000
H        0.80450000       1.89780000      -0.14780000
H       -0.87980000       1.86740000      -0.13730000
H       -2.14860000      -0.18560000       0.06560000
H       -2.08770000      -2.65580000       0.00020000
H       -0.92420000      -4.71930000      -0.05830000
H        2.19190000      -2.57980000      -0.02210000
H        2.15280000      -0.09430000       0.04510000
