25
Properties=species:S:1:pos:R:3 gdb_96546=T pbc="F F F"
C        0.00980000       1.59820000      -0.07590000
C        0.01620000       0.06510000       0.01330000
C        0.59400000      -0.51250000      -1.30290000
C        1.18150000      -1.93440000      -1.26580000
C        2.61670000      -1.98140000      -0.71510000
C        2.75000000      -1.64820000       0.77260000
O        2.15080000      -0.42200000       1.15090000
C        0.72940000      -0.47270000       1.27610000
C        0.35540000       0.26280000       2.56160000
H        1.03300000       1.98690000      -0.03180000
H       -0.43010000       1.92380000      -1.02450000
H       -0.56550000       2.06140000       0.73030000
H       -1.02590000      -0.27490000       0.10260000
H       -0.19950000      -0.46780000      -2.05840000
H        1.38150000       0.16240000      -1.66200000
H        0.52900000      -2.61440000      -0.70140000
H        1.20060000      -2.32460000      -2.29010000
H        3.04820000      -2.97860000      -0.87400000
H        3.23180000      -1.27900000      -1.29210000
H        2.32690000      -2.46880000       1.37630000
H        3.80950000      -1.56290000       1.03870000
H        0.43160000      -1.52530000       1.39580000
H        0.74930000       1.28230000       2.55400000
H       -0.73130000       0.31160000       2.68700000
H        0.78070000      -0.25550000       3.42530000
