21
Properties=species:S:1:pos:R:3 gdb_86000=T pbc="F F F"
C       -0.50610000       1.39190000      -0.11430000
C       -0.10350000      -0.07780000      -0.04580000
C        1.14420000      -0.47590000      -0.88720000
C        2.00820000      -0.58570000       0.43020000
C        2.85640000      -1.84780000       0.58470000
C        2.88790000       0.63210000       0.53420000
O        2.63640000       1.65490000       1.13360000
C        0.67090000      -0.51050000       1.24580000
O        0.60600000       0.26530000       2.40480000
H        0.34530000       2.06050000       0.03920000
H       -0.94350000       1.62460000      -1.09100000
H       -1.24960000       1.62040000       0.65510000
H       -0.98140000      -0.69990000      -0.24390000
H        1.05860000      -1.44620000      -1.38280000
H        1.47890000       0.25820000      -1.62630000
H        3.70420000      -1.85230000      -0.11060000
H        3.25360000      -1.93570000       1.60190000
H        2.25470000      -2.73820000       0.38050000
H        3.84350000       0.54730000      -0.03270000
H        0.37350000      -1.52390000       1.53670000
H        1.10660000       1.07510000       2.22870000
