19
Properties=species:S:1:pos:R:3 gdb_88809=T pbc="F F F"
C        0.31170000       1.48590000      -0.33330000
N       -0.04950000       0.12650000       0.05870000
C        1.02150000      -0.86850000       0.07260000
C        0.41340000      -0.38230000       1.34440000
C        1.17220000       0.46110000       2.35820000
N        1.51460000      -0.28300000       3.60890000
C        2.93130000       0.16850000       3.59010000
C        2.67840000       0.75000000       2.19510000
O        3.35980000       1.22280000       1.33410000
H        1.33170000       1.78570000      -0.05030000
H        0.22340000       1.56580000      -1.42120000
H       -0.40030000       2.19080000       0.10990000
H        0.76540000      -1.84960000      -0.31870000
H        2.02900000      -0.53020000      -0.15970000
H       -0.30750000      -1.02590000       1.84750000
H        0.63140000       1.40400000       2.54040000
H        0.99860000       0.03110000       4.42210000
H        3.19930000       0.94930000       4.31540000
H        3.66890000      -0.63860000       3.65660000
