14
Properties=species:S:1:pos:R:3 gdb_11496=T pbc="F F F"
O       -0.85740000       1.50820000       0.06880000
C        0.20920000       1.05520000       0.38980000
C        1.53030000       1.82830000       0.26310000
O        2.54780000       1.27780000       0.61130000
C        1.45360000       3.22380000      -0.32230000
C        2.70680000       4.03000000      -0.09110000
C        2.67840000       5.49650000      -0.08460000
O        2.76500000       4.75930000       1.13570000
H        0.34660000       0.03560000       0.80690000
H        1.26150000       3.10600000      -1.39940000
H        0.57360000       3.73580000       0.07930000
H        3.63640000       3.52770000      -0.35400000
H        3.57130000       6.05530000      -0.36060000
H        1.73590000       6.01740000      -0.25040000
