19
Properties=species:S:1:pos:R:3 gdb_109982=T pbc="F F F"
C       -0.02170000       1.44800000      -0.20610000
N       -0.01050000       0.03470000       0.16700000
C       -1.27910000      -0.61310000       0.03760000
C       -1.83770000      -1.09460000      -1.35700000
O       -0.83160000      -1.34560000      -2.31390000
C       -2.39440000      -2.35370000      -0.64310000
C       -1.41080000      -2.09570000       0.55090000
C       -0.17260000      -2.84600000       0.41290000
N        0.81310000      -3.42760000       0.23710000
H        0.98580000       1.85650000      -0.09030000
H       -0.35410000       1.64100000      -1.23820000
H       -0.68360000       1.99740000       0.47270000
H        0.68000000      -0.45640000      -0.39230000
H       -2.04030000      -0.01280000       0.54740000
H       -2.56350000      -0.44330000      -1.84850000
H       -0.27760000      -2.07790000      -2.01870000
H       -3.43180000      -2.23160000      -0.32470000
H       -2.28970000      -3.30110000      -1.17440000
H       -1.80440000      -2.22180000       1.56110000
