17
Properties=species:S:1:pos:R:3 gdb_81369=T pbc="F F F"
O       -0.02960000       1.38530000      -0.07780000
C        0.07560000      -0.01310000      -0.01740000
C        0.07940000      -0.62580000       1.42150000
O       -1.37890000      -0.54450000       1.42990000
C       -1.33290000      -0.63430000      -0.01690000
C       -1.29540000      -2.12190000      -0.39800000
O       -1.02220000      -2.18160000      -1.79700000
C       -0.21750000      -2.80330000       0.43020000
C        0.47260000      -2.08110000       1.31360000
H        0.84650000       1.75970000       0.05790000
H        0.80730000      -0.41500000      -0.72570000
H        0.53790000      -0.07080000       2.24280000
H       -2.13100000      -0.07990000      -0.51490000
H       -2.27890000      -2.56860000      -0.18240000
H       -1.03750000      -3.10420000      -2.07040000
H       -0.03940000      -3.86410000       0.27130000
H        1.27890000      -2.48820000       1.91480000
