18
Properties=species:S:1:pos:R:3 gdb_85606=T pbc="F F F"
C        0.03730000       1.57850000       0.03320000
C        0.04600000       0.04940000       0.00710000
C        0.74070000      -0.47560000      -1.26880000
C        0.45060000      -1.92670000      -1.59760000
O        0.17150000      -2.28950000      -2.71680000
C        0.59150000      -2.98380000      -0.49640000
O        0.05870000      -2.65990000       0.79080000
C        0.66080000      -1.65930000       1.50690000
N        0.70510000      -0.43370000       1.22250000
H        1.05990000       1.96780000       0.00070000
H       -0.51830000       1.98190000      -0.81880000
H       -0.42860000       1.93580000       0.95510000
H       -0.99330000      -0.31150000       0.00280000
H        0.44910000       0.11270000      -2.14240000
H        1.82580000      -0.36050000      -1.13610000
H        0.06300000      -3.87880000      -0.82600000
H        1.66150000      -3.22800000      -0.40440000
H        1.08040000      -2.02080000       2.44680000
