17
Properties=species:S:1:pos:R:3 gdb_76584=T pbc="F F F"
C        2.03410000      -0.83000000       2.61790000
C        1.11950000      -1.11640000       1.44920000
C        0.20560000      -0.06260000       0.85610000
C        0.23080000       1.27530000       1.35710000
C        0.22260000       2.42120000       1.74930000
C        0.21770000       3.70800000       2.20050000
N        0.21660000       4.80460000       2.58610000
N        1.34300000      -0.62690000       0.10100000
C        2.49400000       0.21640000      -0.20260000
H        2.94250000      -1.43740000       2.54720000
H        2.32470000       0.21970000       2.68390000
H        1.52980000      -1.09470000       3.55230000
H        0.69910000      -2.12180000       1.45840000
H       -0.76830000      -0.37170000       0.48100000
H        2.29110000       0.75440000      -1.13270000
H        2.75120000       0.95350000       0.56830000
H        3.35790000      -0.43410000      -0.36680000
