19
Properties=species:S:1:pos:R:3 gdb_28322=T pbc="F F F"
C       -0.08530000       1.48290000       0.00750000
C        0.00080000      -0.01370000       0.00590000
C       -0.08740000      -0.82940000      -1.09950000
N       -0.02540000      -2.13650000      -0.65090000
C        0.16250000      -3.45470000      -1.22170000
C       -0.04290000      -4.33460000       0.03570000
N        0.39960000      -3.45970000       1.14360000
C        0.16070000      -2.14500000       0.70180000
C        0.16990000      -0.85240000       1.16480000
H        0.80170000       1.94010000       0.46240000
H       -0.17230000       1.87340000      -1.01090000
H       -0.95320000       1.84250000       0.57410000
H       -0.23080000      -0.59430000      -2.14160000
H       -0.56210000      -3.67760000      -2.00940000
H        1.17400000      -3.57110000      -1.63410000
H       -1.10550000      -4.60300000       0.12450000
H        0.54630000      -5.25410000       0.00070000
H       -0.02980000      -3.68540000       2.03130000
H        0.28050000      -0.52570000       2.18690000
