17
Properties=species:S:1:pos:R:3 gdb_45544=T pbc="F F F"
O       -0.03170000       0.00460000      -0.06400000
C        0.00880000       1.20050000      -0.07050000
O       -1.14130000       1.97610000      -0.10570000
C       -0.77190000       3.34370000      -0.15860000
C       -1.20070000       4.28290000       0.97630000
C       -0.15420000       5.42590000       0.84890000
C        1.17420000       4.75060000       0.35530000
C        0.72380000       3.37150000      -0.01800000
C        1.17610000       2.11930000       0.01360000
H       -1.10320000       3.75050000      -1.12530000
H       -2.23060000       4.63610000       0.89240000
H       -1.09320000       3.75750000       1.93100000
H       -0.49350000       6.15920000       0.11090000
H       -0.01790000       5.96300000       1.78950000
H        1.60670000       5.29280000      -0.49240000
H        1.94290000       4.71730000       1.13220000
H        2.17740000       1.74660000       0.17270000
