15
Properties=species:S:1:pos:R:3 gdb_55485=T pbc="F F F"
N        0.40710000       0.57010000      -1.11830000
C        0.23060000      -0.15790000      -0.08770000
N        0.91320000      -0.08890000       1.11120000
H        1.78790000       0.41270000       1.11520000
H        0.89570000      -0.89240000       1.71990000
C       -0.88630000      -1.20360000      -0.06610000
C       -1.63950000      -1.25690000      -1.30270000
C       -2.23010000      -1.25670000      -2.35100000
C       -2.81490000      -1.10780000      -3.66750000
O       -3.72680000      -1.74860000      -4.11080000
O       -2.21080000      -0.13260000      -4.39110000
H        1.18200000       1.22310000      -0.98600000
H       -1.50490000       0.25960000      -3.85610000
H       -0.44980000      -2.18920000       0.14930000
H       -1.55550000      -0.98420000       0.77680000
