21
Properties=species:S:1:pos:R:3 gdb_100319=T pbc="F F F"
C       -0.11740000       1.49590000      -0.13380000
C        0.00410000      -0.02000000       0.04150000
C        0.76660000      -0.46990000       1.30260000
O        2.10220000       0.04310000       1.31870000
C        0.11900000       0.08220000       2.58750000
O       -1.25230000      -0.22870000       2.69390000
C        0.84130000      -1.99960000       1.30420000
C        1.15140000      -2.80940000       2.48510000
O       -0.19280000      -2.73750000       1.98140000
H        0.85730000       1.98320000      -0.03720000
H       -0.52130000       1.73520000      -1.12190000
H       -0.79090000       1.92890000       0.61040000
H       -0.99170000      -0.47430000       0.06880000
H        0.51860000      -0.45280000      -0.82960000
H        2.50590000      -0.13610000       0.46250000
H        0.69580000      -0.26120000       3.45930000
H        0.20860000       1.17100000       2.56730000
H       -1.30880000      -1.19400000       2.67620000
H        1.10000000      -2.43010000       0.33340000
H        1.63320000      -3.77670000       2.35630000
H        1.31570000      -2.33410000       3.44820000
