20
Properties=species:S:1:pos:R:3 gdb_26656=T pbc="F F F"
C        0.15090000       1.46080000      -0.11360000
C       -0.05180000      -0.01130000      -0.05480000
C       -1.15460000      -0.80180000       0.07090000
C       -2.58880000      -0.40080000       0.21500000
C       -0.66750000      -2.16110000       0.05290000
N       -1.48460000      -3.29170000       0.24490000
C        0.68670000      -2.09640000      -0.08460000
C        1.76390000      -3.11700000      -0.15030000
O        1.07170000      -0.77720000      -0.14220000
H        0.82870000       1.80320000       0.67700000
H        0.58590000       1.77160000      -1.07120000
H       -0.80150000       1.98150000       0.00780000
H       -3.19250000      -0.71070000      -0.64880000
H       -3.04040000      -0.86320000       1.10050000
H       -2.69790000       0.68260000       0.31080000
H       -2.31760000      -3.26420000      -0.33220000
H       -0.99530000      -4.15890000       0.06070000
H        2.45450000      -2.91260000      -0.97650000
H        2.36090000      -3.16460000       0.77000000
H        1.33620000      -4.11120000      -0.31420000
