19
Properties=species:S:1:pos:R:3 gdb_83818=T pbc="F F F"
C       -0.08530000       1.53290000      -0.09350000
C        0.02380000       0.03370000       0.04570000
C        1.34720000      -0.69130000      -0.13670000
O        2.48750000       0.09560000      -0.34530000
C        3.39070000       0.15380000       0.74900000
C        2.71360000       0.42720000       2.07050000
C        1.44060000       0.08980000       2.27000000
C        0.68960000      -0.64600000       1.22100000
O        0.00220000      -1.78620000       1.67440000
H        0.81600000       2.03160000       0.26720000
H       -0.22250000       1.81170000      -1.14350000
H       -0.94110000       1.91710000       0.47150000
H       -0.83140000      -0.53260000      -0.31440000
H        1.34880000      -1.63710000      -0.67610000
H        3.98360000      -0.77620000       0.81810000
H        4.09320000       0.95790000       0.50600000
H        3.30570000       0.90810000       2.84410000
H        0.92940000       0.28620000       3.20860000
H        0.65240000      -2.38420000       2.06160000
