14
Properties=species:S:1:pos:R:3 gdb_8776=T pbc="F F F"
O       -0.06170000       1.44350000       0.00120000
C        0.03110000       0.05110000      -0.00350000
C        0.74120000      -0.43330000      -1.25630000
O        1.12390000       0.34250000      -2.09450000
C        0.78900000      -0.46580000       1.24400000
O        2.14560000      -0.14490000       1.18150000
C        0.15680000       0.12440000       2.49330000
O        0.81110000       0.75550000       3.28360000
H        0.41530000       1.74260000      -0.78980000
H       -0.97460000      -0.41000000      -0.00070000
H        0.88100000      -1.52800000      -1.35530000
H        0.64620000      -1.56170000       1.29390000
H        2.31570000       0.43290000       1.94300000
H       -0.92620000      -0.06090000       2.63600000
