19
Properties=species:S:1:pos:R:3 gdb_76827=T pbc="F F F"
O        0.11360000       1.36970000       0.01560000
C        0.07300000      -0.03470000      -0.04530000
C        0.17490000      -0.67200000       1.41240000
O        0.78880000       0.11200000       2.40330000
C       -1.33220000      -0.73860000       1.36110000
C       -2.41650000      -0.29290000       1.98930000
C       -3.47730000       0.08370000       0.95810000
C       -2.64690000       0.29810000      -0.35140000
C       -1.39580000      -0.57690000      -0.13780000
H        0.90640000       1.59930000       0.51660000
H        0.78130000      -0.42960000      -0.78600000
H        0.68960000      -1.63720000       1.39530000
H        0.18550000       0.84390000       2.57940000
H       -2.53610000      -0.12690000       3.05420000
H       -4.22890000      -0.70890000       0.83530000
H       -4.02710000       0.98490000       1.25060000
H       -3.20880000       0.04620000      -1.25480000
H       -2.34520000       1.34700000      -0.42220000
H       -1.41590000      -1.51340000      -0.70560000
