15
Properties=species:S:1:pos:R:3 gdb_41226=T pbc="F F F"
C       -0.27790000       1.41470000      -0.12090000
O        1.12510000       1.27840000       0.26750000
C        1.31050000       0.18560000      -0.65590000
C       -0.15740000       0.16350000      -0.95200000
O        2.37880000      -1.39530000       0.85400000
C        1.69230000      -1.17760000      -0.10920000
C        1.04110000      -2.33290000      -0.90200000
O       -0.07120000      -2.02010000      -1.75240000
C       -0.79390000      -0.90780000      -1.40120000
H       -0.95340000       1.37700000       0.74100000
H       -0.44220000       2.34970000      -0.67190000
H        1.97940000       0.45660000      -1.48880000
H        1.80430000      -2.79100000      -1.54060000
H        0.72890000      -3.08030000      -0.16380000
H       -1.86040000      -1.01920000      -1.56310000
