18
Properties=species:S:1:pos:R:3 gdb_97253=T pbc="F F F"
C       -0.21720000       1.46640000      -0.95380000
N       -0.12460000       0.05430000      -0.63100000
C       -0.94820000      -0.43890000       0.20420000
O       -1.91450000       0.34720000       0.77110000
C       -2.61850000      -0.09140000       1.91890000
O       -3.49460000      -1.13610000       1.65080000
C       -2.95010000      -2.42600000       1.85400000
C       -1.64480000      -2.70080000       1.17630000
C       -0.83350000      -1.87260000       0.51010000
H       -0.41130000       2.09680000      -0.07700000
H        0.71540000       1.78470000      -1.42700000
H       -1.03270000       1.64850000      -1.66690000
H       -1.91120000      -0.35660000       2.71850000
H       -3.21720000       0.77250000       2.21430000
H       -2.83810000      -2.62600000       2.93530000
H       -3.70890000      -3.12880000       1.48980000
H       -1.32900000      -3.73890000       1.26720000
H        0.07210000      -2.28060000       0.07480000
