21
Properties=species:S:1:pos:R:3 gdb_79635=T pbc="F F F"
C        0.13840000       1.57770000       0.02840000
C        0.03030000       0.05010000      -0.00100000
C        0.69900000      -0.60270000      -1.22150000
N        2.14510000      -0.34260000      -1.36120000
C        1.68830000      -1.61940000      -0.77150000
C        1.67190000      -1.64780000       0.74390000
C        0.66730000      -0.64540000       1.21170000
N        2.09750000      -0.41040000       1.40360000
C        2.58020000      -0.56540000       2.76780000
H        1.19060000       1.86840000       0.05010000
H       -0.32850000       2.02390000      -0.85600000
H       -0.35770000       1.99130000       0.91270000
H       -1.02810000      -0.24240000      -0.02100000
H        0.10920000      -0.73350000      -2.12460000
H        2.41470000      -0.50780000      -2.32870000
H        1.85780000      -2.54520000      -1.31120000
H        1.82280000      -2.59200000       1.25960000
H        0.06030000      -0.82100000       2.09800000
H        2.05310000      -1.34800000       3.34250000
H        3.64560000      -0.81620000       2.74800000
H        2.46280000       0.38390000       3.30060000
