17
Properties=species:S:1:pos:R:3 gdb_34815=T pbc="F F F"
C       -0.05390000      -1.25130000      -0.07620000
C       -0.01630000      -0.05040000      -0.01750000
C       -0.00240000       1.39630000       0.02280000
C        0.05040000       2.12710000       1.41720000
C        1.54370000       1.67560000       1.52470000
C        1.37930000       2.15260000       0.04450000
C        0.58440000       3.33000000       0.62660000
C        0.04950000       4.58840000       0.13210000
O        1.09370000       4.52670000       1.14190000
H       -0.08450000      -2.31150000      -0.12570000
H       -0.73380000       1.81190000      -0.67760000
H       -0.71790000       2.10650000       2.18890000
H        2.18730000       2.28620000       2.15910000
H        1.71160000       0.60800000       1.66740000
H        2.12580000       2.16100000      -0.74850000
H        0.36910000       4.98290000      -0.83110000
H       -0.90990000       4.95840000       0.49010000
