21
Properties=species:S:1:pos:R:3 gdb_70997=T pbc="F F F"
C       -0.11160000       1.58760000      -0.01460000
C       -0.01410000       0.08130000       0.00340000
C        1.05220000      -0.73480000      -0.90020000
C        0.68070000      -1.82230000       0.13780000
C        1.03740000      -2.87550000       1.21240000
C        0.28930000      -1.90030000       2.22680000
C        0.61720000      -0.75490000       1.19830000
O       -0.71960000      -2.06860000      -0.18710000
C       -1.25980000      -0.74410000      -0.29940000
H        0.84850000       2.05120000       0.23250000
H       -0.41500000       1.95430000      -1.00210000
H       -0.85120000       1.93980000       0.71350000
H        0.79730000      -0.89630000      -1.95170000
H        2.06370000      -0.34020000      -0.79370000
H        0.63890000      -3.88260000       1.07340000
H        2.10790000      -2.92160000       1.42470000
H       -0.76620000      -2.15210000       2.31570000
H        0.72800000      -1.78810000       3.22050000
H        1.61240000      -0.35940000       1.41630000
H       -2.06590000      -0.59280000       0.43070000
H       -1.66030000      -0.57220000      -1.30710000
