14
Properties=species:S:1:pos:R:3 gdb_50259=T pbc="F F F"
O       -0.10470000       0.08050000      -0.00370000
C       -0.00410000       1.26900000       0.19950000
N        1.17860000       1.94380000       0.16080000
C        2.48740000       1.49960000      -0.34400000
C        2.88080000       2.98850000      -0.46750000
O        2.51960000       3.55520000      -1.75920000
C        1.27970000       3.96980000      -1.30840000
O        0.44120000       4.55030000      -1.91110000
C        1.49210000       3.37530000       0.10090000
H       -0.85250000       1.93020000       0.46460000
H        3.05950000       0.93320000       0.39660000
H        2.45100000       0.95040000      -1.28810000
H        3.84110000       3.35130000      -0.11360000
H        1.27080000       3.98040000       0.97940000
