13
Properties=species:S:1:pos:R:3 gdb_42166=T pbc="F F F"
O        0.12400000      -0.03820000       0.54120000
C        0.01070000       1.10620000       0.18750000
C        1.14010000       1.92840000      -0.19450000
C        2.08170000       2.62190000      -0.47770000
C       -1.36630000       1.84320000       0.12820000
C       -1.62700000       2.27660000      -1.24670000
C       -1.82180000       2.61690000      -2.38120000
C       -2.44520000       1.02720000       0.67660000
C       -3.33500000       0.36920000       1.13930000
H        2.92030000       3.22360000      -0.73310000
H       -1.24010000       2.74200000       0.75200000
H       -2.00340000       2.91910000      -3.38320000
H       -4.12020000      -0.22020000       1.54450000
