25
Properties=species:S:1:pos:R:3 gdb_102639=T pbc="F F F"
C        0.21670000       1.09280000      -0.49080000
C       -0.28590000      -0.32690000      -0.21940000
C       -1.61810000      -0.36170000       0.53170000
C       -2.18300000      -1.78460000       0.68130000
C       -2.82250000      -2.35340000      -0.59360000
C       -3.31560000      -3.78770000      -0.39980000
O       -3.87070000      -1.50880000      -1.07210000
O       -1.37870000       0.21880000       1.81450000
C       -2.50320000       0.82080000       2.40640000
H        1.18770000       1.07890000      -0.99530000
H       -0.48270000       1.64370000      -1.12980000
H        0.32500000       1.64490000       0.44610000
H       -0.39620000      -0.87060000      -1.16480000
H        0.45230000      -0.87750000       0.37780000
H       -2.35620000       0.24840000      -0.01130000
H       -1.38590000      -2.45500000       1.02630000
H       -2.94700000      -1.78390000       1.47120000
H       -2.08610000      -2.34450000      -1.40600000
H       -2.49070000      -4.45940000      -0.14140000
H       -4.05190000      -3.83880000       0.41240000
H       -3.78980000      -4.15260000      -1.31490000
H       -4.57920000      -1.52710000      -0.41860000
H       -2.91310000       1.62690000       1.77780000
H       -3.31390000       0.10390000       2.61080000
H       -2.17840000       1.24810000       3.35900000
