19
Properties=species:S:1:pos:R:3 gdb_60085=T pbc="F F F"
C       -0.23110000       1.55270000       0.26210000
N       -0.04210000       0.12450000       0.03570000
C        0.78670000      -0.47910000       1.06770000
C       -1.28790000      -0.59120000      -0.15700000
C       -1.93960000      -0.27500000      -1.49240000
C       -3.40110000      -0.39830000      -1.66970000
O       -2.78800000       0.88030000      -1.55040000
C       -1.09530000      -0.45950000      -2.66310000
N       -0.43840000      -0.63410000      -3.59730000
H        0.74560000       2.04310000       0.30330000
H       -0.80220000       1.99760000      -0.55450000
H       -0.76460000       1.76740000       1.20750000
H        0.33300000      -0.43350000       2.07610000
H        0.97960000      -1.52890000       0.82670000
H        1.74870000       0.04000000       1.11040000
H       -1.07380000      -1.66600000      -0.13730000
H       -2.03820000      -0.38930000       0.63210000
H       -3.79950000      -0.64040000      -2.65220000
H       -4.00170000      -0.71470000      -0.81840000
