14
Properties=species:S:1:pos:R:3 gdb_133189=T pbc="F F F"
C        0.12290000       1.46620000       0.02460000
C        0.04080000      -0.02170000      -0.01010000
N       -0.00290000      -0.64700000      -1.14470000
C       -0.07740000      -2.00850000      -1.10030000
F       -0.11910000      -2.59230000      -2.28230000
N       -0.11110000      -2.77580000      -0.07170000
N       -0.06490000      -2.11190000       1.11200000
C        0.01200000      -0.74010000       1.28400000
N        0.05650000      -0.09560000       2.39270000
H        1.01800000       1.77590000       0.57390000
H        0.13640000       1.86560000      -0.98920000
H       -0.72360000       1.87170000       0.58840000
H       -0.09150000      -2.71680000       1.91890000
H        0.02890000      -0.71880000       3.20160000
