16
Properties=species:S:1:pos:R:3 gdb_19885=T pbc="F F F"
O        0.17900000       1.39290000      -0.01570000
C       -0.01310000       0.01320000      -0.03420000
C       -0.46130000      -0.69510000       1.20700000
O       -1.03500000       0.16650000       2.17220000
C       -2.39090000       0.43580000       1.84880000
C       -2.71050000       1.44540000       0.77670000
C       -2.66060000      -0.03840000       0.44760000
C       -1.37470000      -0.69000000      -0.00800000
H        0.15420000       1.65560000       0.91440000
H        0.72980000      -0.49480000      -0.64590000
H        0.04930000      -1.55250000       1.63470000
H       -3.06120000       0.28970000       2.68960000
H       -3.69900000       1.89070000       0.83280000
H       -1.93870000       2.08960000       0.38370000
H       -3.57840000      -0.55230000       0.18810000
H       -1.46570000      -1.56690000      -0.63820000
