17
Properties=species:S:1:pos:R:3 gdb_72839=T pbc="F F F"
O        0.03310000       1.40780000      -0.03400000
C        0.04640000       0.00760000       0.01360000
C        0.28940000      -0.77360000      -1.30610000
N       -0.85080000      -1.65050000      -0.94480000
C       -1.34550000      -0.65170000       0.04580000
C       -1.54010000      -1.24120000       1.44150000
O       -2.53970000      -1.73790000       1.90990000
N       -0.33130000      -1.10140000       2.07450000
C        0.75620000      -0.56700000       1.27500000
H        0.94240000       1.72620000      -0.05270000
H        0.10950000      -0.11520000      -2.16590000
H        1.24270000      -1.29830000      -1.43890000
H       -1.49700000      -1.86520000      -1.69430000
H       -2.17960000      -0.02130000      -0.27230000
H       -0.18670000      -1.52590000       2.97730000
H        1.48700000      -1.34220000       1.01020000
H        1.28130000       0.23560000       1.80670000
