19
Properties=species:S:1:pos:R:3 gdb_38323=T pbc="F F F"
C       -0.07400000       1.60000000       0.05730000
C        1.45530000       1.29310000       0.09520000
C        1.12420000       0.19570000       1.15380000
C        0.02870000       0.04270000       0.05270000
C        1.16530000       0.21130000      -0.97330000
C        1.05880000       0.29610000      -2.51320000
C        2.59790000       0.15650000      -2.60890000
C        2.06470000      -0.88290000      -1.59260000
O        0.95770000      -1.18600000      -2.53590000
H       -0.49360000       2.05170000       0.96010000
H       -0.46420000       2.07460000      -0.84630000
H        2.27410000       2.01330000       0.12280000
H        1.83840000      -0.62420000       1.26100000
H        0.78110000       0.55770000       2.12660000
H       -0.78730000      -0.67790000       0.02160000
H        0.37350000       0.85380000      -3.15200000
H        2.95790000      -0.26840000      -3.54650000
H        3.21890000       0.97580000      -2.23810000
H        2.57750000      -1.72930000      -1.13500000
