19
Properties=species:S:1:pos:R:3 gdb_2944=T pbc="F F F"
C        0.01830000       1.57650000       0.07110000
C        0.04380000       0.04450000       0.02610000
C        0.62540000      -0.52570000      -1.26870000
C        0.67930000      -2.06190000      -1.33320000
C        0.78300000      -2.32430000      -2.83940000
O        0.14270000      -1.22480000      -3.49020000
C       -0.18460000      -0.21820000      -2.53780000
H        1.02460000       1.99240000      -0.05120000
H       -0.61010000       1.99280000      -0.72320000
H       -0.37610000       1.93690000       1.02610000
H        0.62800000      -0.33290000       0.87480000
H       -0.97450000      -0.34520000       0.16010000
H        1.64320000      -0.13430000      -1.40590000
H        1.51210000      -2.49060000      -0.76960000
H       -0.25050000      -2.48240000      -0.93120000
H        1.83310000      -2.37400000      -3.16330000
H        0.29430000      -3.25660000      -3.14590000
H       -1.26520000      -0.24300000      -2.31590000
H        0.04480000       0.75920000      -2.97540000
