13
Properties=species:S:1:pos:R:3 gdb_131622=T pbc="F F F"
O        0.24150000       1.08660000      -0.67040000
C       -0.07610000       0.12090000       0.29990000
C       -1.43270000      -0.49100000       0.09370000
C       -2.21170000      -0.66670000      -1.02190000
C       -3.36710000      -1.33920000      -0.51680000
N       -3.28990000      -1.54630000       0.76780000
O       -2.05520000      -1.00280000       1.15400000
C       -1.90860000      -0.29810000      -2.35250000
N       -1.64420000      -0.01610000      -3.44450000
H        0.39830000       0.65510000      -1.51760000
H        0.67180000      -0.68610000       0.35620000
H       -0.07050000       0.62400000       1.27210000
H       -4.23950000      -1.66770000      -1.06280000
