16
Properties=species:S:1:pos:R:3 gdb_94078=T pbc="F F F"
O       -0.08480000       1.41110000       0.04950000
C        0.02180000       0.00130000       0.00430000
C        0.74730000      -0.55180000       1.23980000
O        0.65050000      -1.97450000       1.27730000
C       -0.69220000      -2.37680000       1.26600000
O       -1.37200000      -1.97890000       0.10810000
C       -1.40240000      -0.55770000      -0.00510000
C       -0.72570000      -3.84930000       1.33060000
N       -0.77440000      -4.99790000       1.42140000
H        0.77060000       1.79310000      -0.16920000
H        0.53950000      -0.34530000      -0.90090000
H        1.81470000      -0.31650000       1.22870000
H        0.29980000      -0.10740000       2.14300000
H       -1.20730000      -1.96660000       2.15700000
H       -1.96960000      -0.11320000       0.82820000
H       -1.91740000      -0.32720000      -0.93880000
