19
Properties=species:S:1:pos:R:3 gdb_54683=T pbc="F F F"
C        0.02820000       1.44900000       0.06150000
C        0.00780000      -0.05450000       0.16220000
O        1.01400000      -0.73070000       0.23330000
C       -1.34650000      -0.73540000       0.17060000
N       -2.40700000      -0.01540000       0.08720000
C       -3.67480000      -0.74060000       0.08760000
C       -3.57150000      -2.16460000      -0.48030000
C       -2.44710000      -2.93030000       0.22550000
N       -1.26580000      -2.09000000       0.26990000
H        1.06030000       1.79920000       0.09350000
H       -0.45690000       1.76760000      -0.86560000
H       -0.55690000       1.88810000       0.87380000
H       -4.05930000      -0.77700000       1.11830000
H       -4.40370000      -0.15700000      -0.48530000
H       -4.51930000      -2.69900000      -0.36650000
H       -3.35120000      -2.10820000      -1.55230000
H       -2.76230000      -3.21370000       1.24060000
H       -2.21210000      -3.85780000      -0.30770000
H       -0.33390000      -2.47370000       0.29760000
