19
Properties=species:S:1:pos:R:3 gdb_98153=T pbc="F F F"
C       -0.16510000       1.56620000      -0.11740000
C        0.01330000       0.02310000      -0.02580000
C        0.79860000      -0.33970000       1.25560000
C       -1.30150000      -0.61880000       0.00870000
C       -2.37970000      -1.14240000       0.08410000
C        0.75650000      -0.39220000      -1.31570000
O        0.16870000      -0.62250000      -2.34780000
C        2.28200000      -0.45270000      -1.31860000
O        2.76830000      -0.68760000      -2.60440000
H        0.80760000       2.06680000      -0.15120000
H       -0.73270000       1.83310000      -1.01110000
H       -0.70770000       1.92290000       0.76180000
H        0.22950000      -0.01760000       2.13100000
H        0.95420000      -1.41860000       1.33540000
H        1.77030000       0.16130000       1.28280000
H       -3.33270000      -1.60900000       0.13020000
H        2.68260000       0.48930000      -0.91160000
H        2.59460000      -1.24610000      -0.61940000
H        1.97710000      -0.81840000      -3.15250000
