17
Properties=species:S:1:pos:R:3 gdb_92528=T pbc="F F F"
O        0.46340000       0.90110000       0.92420000
C        0.05730000      -0.20000000       0.16690000
C       -1.46780000      -0.41590000       0.06520000
C       -1.68420000      -1.12140000      -1.29530000
O       -2.39250000      -0.30290000      -2.25830000
C       -1.26710000      -0.28490000      -3.16150000
C       -0.38050000      -1.00520000      -2.12580000
C        0.50400000      -0.09850000      -1.29090000
O        1.35770000       0.66700000      -1.66740000
H        1.12760000       1.35880000       0.38580000
H        0.51200000      -1.13150000       0.55750000
H       -1.85900000      -0.98660000       0.90930000
H       -1.97130000       0.55430000       0.04100000
H       -2.14080000      -2.11220000      -1.20850000
H       -1.46220000      -0.86950000      -4.06830000
H       -0.96070000       0.72890000      -3.44020000
H        0.14200000      -1.90520000      -2.45410000
