16
Properties=species:S:1:pos:R:3 gdb_72055=T pbc="F F F"
N       -0.21760000       1.34100000       0.02740000
C        0.01190000      -0.04960000      -0.03600000
C        0.95160000      -0.90200000      -0.90540000
C        0.12370000      -2.10810000      -0.40790000
N        0.48020000      -2.14470000       1.05450000
C       -0.32340000      -0.91470000       1.16990000
C       -1.09670000      -1.12470000      -0.12490000
C       -2.45280000      -1.05670000      -0.49870000
N       -3.56680000      -1.02180000      -0.81920000
H        0.51030000       1.82190000       0.54510000
H       -0.28750000       1.75900000      -0.89390000
H        0.79060000      -0.70310000      -1.96820000
H        2.01850000      -0.92000000      -0.66500000
H        0.08000000      -3.05140000      -0.94500000
H       -0.05910000      -2.89640000       1.48330000
H       -0.66700000      -0.49070000       2.10390000
