16
Properties=species:S:1:pos:R:3 gdb_64893=T pbc="F F F"
C       -0.03920000       1.51170000       0.07040000
C        0.00420000      -0.00570000       0.00080000
C        1.33180000      -0.70320000      -0.26270000
C        0.76750000      -0.77850000       1.12290000
O        1.44850000      -0.00000000       2.06090000
C        0.21260000      -2.00610000       1.62460000
C       -0.26390000      -3.00660000       2.08990000
C       -1.17980000      -0.62370000      -0.53620000
N       -2.14320000      -1.09520000      -0.97040000
H        0.83710000       1.88510000       0.60200000
H       -0.05380000       1.94040000      -0.93590000
H       -0.93610000       1.85130000       0.59640000
H        1.33030000      -1.60410000      -0.86280000
H        2.19350000      -0.05610000      -0.38390000
H        0.88550000       0.08760000       2.83920000
H       -0.68710000      -3.89850000       2.48240000
