15
Properties=species:S:1:pos:R:3 gdb_125594=T pbc="F F F"
C       -0.01680000       1.49390000      -0.01950000
C       -0.00150000      -0.00630000      -0.01860000
N       -0.03330000      -0.60670000      -1.17580000
N       -0.01740000      -1.97080000      -1.11630000
C        0.02750000      -2.74890000      -0.00040000
O        0.03860000      -3.97340000       0.00410000
C        0.05830000      -1.91750000       1.23050000
N        0.10220000      -2.62770000       2.36620000
N        0.04460000      -0.61200000       1.21150000
H        0.87560000       1.88100000       0.48280000
H       -0.05340000       1.87430000      -1.04060000
H       -0.88310000       1.86300000       0.53900000
H       -0.04240000      -2.43690000      -2.01300000
H        0.11100000      -3.63200000       2.28570000
H        0.12730000      -2.16630000       3.25850000
