15
Properties=species:S:1:pos:R:3 gdb_61729=T pbc="F F F"
C       -0.05990000       1.88960000       0.01310000
C       -0.08810000       0.36540000      -0.09690000
O        0.51390000       0.02970000      -1.36980000
C        0.16260000      -1.15040000      -1.92410000
O        0.61510000      -1.52930000      -2.96060000
C        0.61840000      -0.29280000       0.99750000
C        1.19070000      -0.83970000       1.91250000
C        1.84030000      -1.44980000       2.94020000
C        2.41420000      -1.99280000       3.85280000
H        0.97120000       2.24830000      -0.00980000
H       -0.60790000       2.32670000      -0.82490000
H       -0.52330000       2.20480000       0.95080000
H       -1.13190000       0.02050000      -0.10450000
H       -0.58410000      -1.70640000      -1.32520000
H        2.92310000      -2.46850000       4.65450000
