20
Properties=species:S:1:pos:R:3 gdb_62259=T pbc="F F F"
C       -0.10850000       1.45340000       0.13970000
N        0.01750000       0.01780000      -0.05030000
C       -0.02740000      -0.85470000       1.10760000
C       -1.43340000      -1.02980000       1.70330000
C       -1.42290000      -1.95000000       2.93610000
C       -2.82210000      -2.20260000       3.45240000
O       -3.20350000      -1.94660000       4.56430000
C        0.19800000      -0.48380000      -1.30750000
O        0.24040000       0.16650000      -2.32980000
H        0.64140000       1.81170000       0.85490000
H        0.05070000       1.92930000      -0.82790000
H       -1.10170000       1.72840000       0.51200000
H        0.36290000      -1.83420000       0.80840000
H        0.65250000      -0.46400000       1.87700000
H       -1.84330000      -0.05310000       1.98420000
H       -2.09630000      -1.44010000       0.93170000
H       -0.99020000      -2.92250000       2.65800000
H       -0.82260000      -1.52960000       3.74850000
H       -3.51110000      -2.65300000       2.69910000
H        0.30930000      -1.58640000      -1.29250000
