18
Properties=species:S:1:pos:R:3 gdb_94756=T pbc="F F F"
C        0.19010000       1.57950000      -0.05530000
C        0.06730000       0.06610000       0.02060000
O        0.74330000      -0.49750000      -1.10730000
C        1.24590000      -1.78370000      -0.78590000
C        1.46090000      -1.77710000       0.72390000
N        2.19000000      -0.55180000       1.16130000
C        0.72180000      -0.58530000       1.22840000
C        1.59350000      -3.00160000       1.44800000
C        1.72780000      -4.04390000       2.03390000
H        1.24010000       1.86930000       0.02850000
H       -0.20050000       1.94080000      -1.01030000
H       -0.37920000       2.05330000       0.75080000
H       -0.99560000      -0.23070000       0.01230000
H        0.53200000      -2.58130000      -1.04300000
H        2.17000000      -1.93560000      -1.35130000
H        2.56900000      -0.72470000       2.09020000
H        0.21600000      -0.59300000       2.18770000
H        1.84130000      -4.96170000       2.55610000
