19
Properties=species:S:1:pos:R:3 gdb_65929=T pbc="F F F"
O       -0.18980000       1.46900000      -0.02800000
C        0.01950000       0.08070000      -0.00850000
C        1.05260000      -0.52260000      -1.00020000
O        1.67410000      -1.26880000       0.06390000
C        0.97630000      -0.50510000       1.06660000
C       -1.33540000      -0.60060000      -0.05280000
C       -2.42070000      -0.12390000       0.94160000
O       -3.33100000       0.18220000      -0.13300000
C       -2.34420000      -0.14150000      -1.13230000
H        0.66400000       1.91310000      -0.00030000
H        0.68290000      -1.16850000      -1.80430000
H        1.72890000       0.23430000      -1.42660000
H        1.61990000       0.25930000       1.52880000
H        0.54800000      -1.13770000       1.85200000
H       -1.18040000      -1.68170000      -0.03790000
H       -2.82610000      -0.88570000       1.61810000
H       -2.14990000       0.76940000       1.51610000
H       -2.03130000       0.74230000      -1.70030000
H       -2.69910000      -0.91480000      -1.82390000
