16
Properties=species:S:1:pos:R:3 gdb_113127=T pbc="F F F"
C        0.25280000       1.55680000       0.08050000
C       -0.24550000       0.13460000      -0.15380000
N        0.54320000      -0.48980000      -1.22460000
C        1.74010000      -1.20630000      -0.86990000
C        0.51540000      -1.95820000      -1.35520000
C       -0.19560000      -2.76430000      -0.38400000
N       -0.77820000      -3.38980000       0.39400000
C        0.46690000      -2.46160000      -2.71260000
N        0.44980000      -2.86390000      -3.79510000
H        1.29320000       1.56050000       0.42100000
H        0.19170000       2.14490000      -0.83880000
H       -0.35470000       2.04350000       0.84840000
H       -0.20190000      -0.44750000       0.77900000
H       -1.28810000       0.14290000      -0.48620000
H        2.58360000      -1.11420000      -1.54710000
H        1.98340000      -1.34120000       0.18340000
