16
Properties=species:S:1:pos:R:3 gdb_26757=T pbc="F F F"
O       -0.02960000       1.35550000       0.09400000
C        0.12820000       0.00560000       0.01880000
C        0.12780000      -0.74080000      -1.14600000
O       -0.15650000      -0.27470000      -2.40340000
N        0.09350000      -2.06810000      -0.75650000
C        0.77780000      -3.37290000      -0.95880000
C        0.73880000      -3.55810000       0.59810000
C        0.23020000      -2.12760000       0.61520000
C        0.25210000      -0.86380000       1.15030000
H       -0.19850000       1.66950000      -0.80290000
H        0.63470000      -0.32580000      -2.95190000
H        0.21020000      -4.07560000      -1.57360000
H        1.79380000      -3.27040000      -1.35200000
H        0.04450000      -4.32360000       0.95510000
H        1.71680000      -3.72350000       1.05610000
H        0.33960000      -0.56080000       2.18120000
