17
Properties=species:S:1:pos:R:3 gdb_84396=T pbc="F F F"
O       -0.14740000       1.29200000       1.11910000
C       -0.05720000       0.19960000       0.20950000
C        0.83250000      -0.89640000       0.76790000
C        0.10700000      -1.89010000       1.27920000
C       -1.37660000      -1.61240000       1.13360000
O       -1.90480000      -0.98920000       2.31910000
C       -1.40310000      -0.55420000       0.00530000
C       -2.64960000       0.30960000       0.00030000
O       -3.55780000       0.14760000      -0.77660000
H       -0.46390000       0.92400000       1.95500000
H        0.31200000       0.63140000      -0.72440000
H        1.91130000      -0.80030000       0.80900000
H        0.48970000      -2.75970000       1.80310000
H       -1.97430000      -2.49620000       0.88010000
H       -1.80150000      -1.60000000       3.05640000
H       -1.37510000      -1.08920000      -0.94800000
H       -2.67610000       1.11250000       0.76040000
