16
Properties=species:S:1:pos:R:3 gdb_45303=T pbc="F F F"
N        0.15510000       1.34940000       0.19540000
C        0.12360000       0.10470000       0.02140000
O       -0.92930000      -0.51300000      -0.56520000
C       -0.74880000      -1.93150000      -0.57430000
C       -0.82930000      -2.48790000      -2.00850000
C        0.61830000      -2.67630000      -2.39330000
C        1.45560000      -2.47460000      -1.37740000
C        0.72230000      -2.09900000      -0.11720000
O        1.07910000      -0.79870000       0.38080000
H        1.03510000       1.61670000       0.62940000
H       -1.48250000      -2.37540000       0.10350000
H       -1.37970000      -3.43650000      -2.03520000
H       -1.36360000      -1.79120000      -2.66240000
H        0.91570000      -2.96140000      -3.39640000
H        2.53460000      -2.56090000      -1.40820000
H        0.86900000      -2.80630000       0.70400000
