17
Properties=species:S:1:pos:R:3 gdb_65989=T pbc="F F F"
C        0.21700000       1.62490000      -0.47180000
C       -0.04630000       0.16190000      -0.11370000
C        0.81180000      -0.89960000      -0.84230000
O        1.45980000      -1.26240000       0.41770000
C        0.72760000      -0.33880000       1.12000000
O        0.77780000      -0.10700000       2.28450000
C       -1.53460000      -0.13810000      -0.10970000
C       -2.23370000      -0.83540000       0.97960000
O       -2.32890000       0.58400000       0.82090000
H        1.28810000       1.84660000      -0.48450000
H       -0.19480000       1.85920000      -1.45920000
H       -0.26500000       2.27330000       0.26360000
H        0.27480000      -1.75490000      -1.25930000
H        1.54240000      -0.51670000      -1.55800000
H       -1.96540000      -0.19440000      -1.11300000
H       -3.14410000      -1.39080000       0.76010000
H       -1.68010000      -1.16230000       1.85640000
