21
Properties=species:S:1:pos:R:3 gdb_122859=T pbc="F F F"
C        0.01410000       1.42810000      -0.04690000
O        0.00870000       0.02240000      -0.01550000
C        0.64670000      -0.55520000      -1.13170000
C        0.58310000      -2.07010000      -0.99480000
C        1.25470000      -2.77940000      -2.16920000
C        1.20350000      -4.28930000      -2.05160000
O        0.70060000      -4.91070000      -1.15010000
O        1.80770000      -4.86840000      -3.11080000
C        1.81730000      -6.30100000      -3.10220000
H        1.03850000       1.83460000      -0.05250000
H       -0.51260000       1.82110000      -0.93170000
H       -0.49860000       1.77850000       0.85220000
H        0.15470000      -0.23030000      -2.06650000
H        1.69670000      -0.21600000      -1.19240000
H        1.06030000      -2.36740000      -0.05610000
H       -0.46320000      -2.38130000      -0.91890000
H        0.78990000      -2.50370000      -3.12420000
H        2.30830000      -2.48830000      -2.26510000
H        0.79760000      -6.69460000      -3.09400000
H        2.33440000      -6.60040000      -4.01400000
H        2.34420000      -6.67890000      -2.22220000
