18
Properties=species:S:1:pos:R:3 gdb_41379=T pbc="F F F"
C        0.11000000       1.51810000      -0.27270000
N        1.46340000       1.56130000       0.38070000
C        1.43400000       0.09010000       0.58560000
C        0.77800000      -0.34110000       1.92000000
O       -0.54120000      -0.38970000       1.29010000
C        0.02300000      -0.00090000       0.02330000
C        0.09210000      -1.01670000      -1.10750000
O        1.47960000      -1.01140000      -1.47790000
C        2.25970000      -0.84630000      -0.28190000
H       -0.63480000       2.13680000       0.23540000
H        0.11250000       1.75340000      -1.34310000
H        2.19960000       1.85860000      -0.25020000
H        1.06790000      -1.32430000       2.30920000
H        0.82440000       0.41200000       2.71140000
H       -0.22550000      -2.00180000      -0.73490000
H       -0.47830000      -0.76600000      -2.00530000
H        3.23640000      -0.45710000      -0.58350000
H        2.40920000      -1.81380000       0.22170000
