19
Properties=species:S:1:pos:R:3 gdb_56235=T pbc="F F F"
C       -0.56280000       1.11810000      -0.34200000
C       -0.48590000      -0.36450000      -0.65670000
O       -1.44810000      -0.97030000      -1.11600000
N        0.69920000      -0.97070000      -0.39670000
C        0.91550000      -2.39300000      -0.63850000
C        1.17290000      -2.76740000      -2.12440000
C        0.20990000      -3.81000000      -2.71040000
N       -1.10550000      -3.52440000      -2.53050000
O        0.61440000      -4.79720000      -3.29740000
H       -0.77280000       1.66430000      -1.26560000
H       -1.40380000       1.28780000       0.33500000
H        0.34720000       1.51930000       0.11070000
H        1.46750000      -0.41400000      -0.06260000
H        1.76600000      -2.69560000      -0.02370000
H        0.03840000      -2.92670000      -0.26460000
H        1.10070000      -1.86070000      -2.73470000
H        2.17690000      -3.17210000      -2.25940000
H       -1.41070000      -2.66690000      -2.08070000
H       -1.77970000      -4.15700000      -2.92810000
