19
Properties=species:S:1:pos:R:3 gdb_41967=T pbc="F F F"
C        0.01070000       1.53060000       0.01130000
O        1.32540000       2.07460000       0.04230000
C        2.38830000       1.15490000      -0.11950000
O        2.71920000       0.54280000       1.11910000
C        2.03460000      -0.65770000       1.45370000
C        0.50560000      -0.57470000       1.35910000
C       -0.00250000      -0.00840000       0.00320000
C        0.88120000      -0.43620000      -1.14950000
C        2.07310000       0.15500000      -1.21230000
H       -0.52730000       1.90950000       0.88940000
H       -0.50110000       1.90240000      -0.88730000
H        3.25510000       1.77400000      -0.35910000
H        2.38910000      -1.48110000       0.81940000
H        2.33500000      -0.88110000       2.48150000
H        0.11300000      -1.58710000       1.51380000
H        0.10970000       0.04910000       2.16910000
H       -1.03760000      -0.32920000      -0.14970000
H        0.54290000      -1.16830000      -1.87560000
H        2.81030000      -0.04320000      -1.98190000
