18
Properties=species:S:1:pos:R:3 gdb_109259=T pbc="F F F"
O        0.05140000       1.18520000      -0.68410000
C       -0.00380000      -0.10700000      -0.15130000
C       -1.42110000      -0.50380000       0.19870000
N       -2.36660000       0.30700000      -0.02600000
C       -3.73820000      -0.01130000       0.33830000
C       -3.96340000      -1.43360000       0.82420000
C       -3.68230000      -2.60250000      -0.10030000
C       -2.74560000      -2.28070000       1.02850000
O       -1.47250000      -1.74740000       0.72850000
H       -0.87220000       1.48700000      -0.69580000
H        0.39370000      -0.85000000      -0.86080000
H        0.60900000      -0.18890000       0.76010000
H       -4.03770000       0.68640000       1.13070000
H       -4.38160000       0.21570000      -0.52140000
H       -4.76910000      -1.55540000       1.54110000
H       -4.29470000      -3.49360000      -0.02130000
H       -3.33760000      -2.37400000      -1.10410000
H       -2.66630000      -2.94860000       1.87730000
