18
Properties=species:S:1:pos:R:3 gdb_44455=T pbc="F F F"
N        0.04690000       1.23190000       0.42180000
C       -0.01500000       0.03090000       0.05310000
C       -1.30740000      -0.82460000       0.02040000
C       -0.71900000      -2.23600000      -0.01100000
C       -0.58890000      -3.34330000      -1.12180000
C       -0.13240000      -2.25430000      -2.12170000
C        0.57370000      -1.95830000      -0.76450000
C        0.93220000      -3.45830000      -0.67140000
O        1.08780000      -0.70730000      -0.38510000
H        0.99900000       1.59150000       0.33850000
H       -1.91540000      -0.60360000       0.89780000
H       -1.89110000      -0.54450000      -0.86040000
H       -0.57220000      -2.62180000       1.00210000
H       -1.25130000      -4.18290000      -1.32060000
H        0.50850000      -2.58310000      -2.94220000
H       -0.88440000      -1.54460000      -2.46710000
H        1.11530000      -3.85950000       0.32750000
H        1.61960000      -3.86640000      -1.41570000
