23
Properties=species:S:1:pos:R:3 gdb_59177=T pbc="F F F"
C       -0.04190000       1.51230000       0.09500000
C       -0.20520000      -0.01550000       0.06040000
C       -1.69090000      -0.40540000       0.00860000
C        0.54420000      -0.59960000      -1.13490000
C        2.09260000      -0.65390000      -1.24560000
C        2.15490000      -1.81510000      -0.23060000
C        1.01100000      -2.09140000      -1.24670000
C        0.22100000      -3.34260000      -1.47630000
O        1.94090000      -1.65250000      -2.32660000
H        1.01050000       1.80200000       0.17870000
H       -0.44110000       1.96900000      -0.81830000
H       -0.57860000       1.94600000       0.94530000
H        0.21350000      -0.41720000       0.99120000
H       -2.16350000      -0.02280000      -0.90370000
H       -1.82550000      -1.49160000       0.02140000
H       -2.23540000       0.00920000       0.86330000
H        0.09920000      -0.26180000      -2.07800000
H        2.80450000       0.15480000      -1.41320000
H        3.02250000      -2.46770000      -0.33950000
H        1.90240000      -1.62550000       0.81470000
H       -0.38900000      -3.57700000      -0.59840000
H       -0.44200000      -3.22780000      -2.33920000
H        0.89210000      -4.18660000      -1.66400000
