18
Properties=species:S:1:pos:R:3 gdb_92012=T pbc="F F F"
O       -0.21370000       1.18320000       1.03720000
C       -0.13820000       0.07590000       0.15640000
C        0.84060000      -0.95680000       0.74920000
N        0.07720000      -1.95660000       1.52460000
C       -0.86670000      -1.37510000       2.49570000
C       -1.33650000      -1.80630000       1.15130000
C       -1.46110000      -0.73420000       0.06150000
C       -2.74520000       0.05400000       0.13390000
O       -2.83110000       1.25940000       0.19690000
H       -0.99910000       1.68770000       0.77850000
H        0.18160000       0.40510000      -0.84260000
H        1.36140000      -1.49320000      -0.05090000
H        1.58650000      -0.46230000       1.37650000
H       -1.06750000      -2.01130000       3.35310000
H       -0.80540000      -0.31150000       2.69910000
H       -1.91520000      -2.71840000       1.03390000
H       -1.49150000      -1.26030000      -0.90560000
H       -3.66750000      -0.56720000       0.11660000
