17
Properties=species:S:1:pos:R:3 gdb_69107=T pbc="F F F"
O       -0.00030000       1.36190000      -0.11330000
C        0.00540000      -0.01810000      -0.00930000
C       -0.32520000      -0.89110000      -1.18120000
C       -1.27690000      -0.85530000       0.01730000
C       -1.02180000      -1.92590000       1.07540000
O        0.39100000      -1.95250000       1.25130000
C        0.89010000      -0.63330000       1.06260000
C       -2.53320000      -0.18840000      -0.06950000
C       -3.55470000       0.44930000      -0.11270000
H       -0.90320000       1.67440000       0.03430000
H       -0.66670000      -0.38290000      -2.07480000
H        0.23940000      -1.80490000      -1.33690000
H       -1.54360000      -1.65530000       2.00590000
H       -1.33180000      -2.93130000       0.77580000
H        1.94380000      -0.71940000       0.78090000
H        0.81450000      -0.02300000       1.97630000
H       -4.47810000       0.97070000      -0.17160000
