18
Properties=species:S:1:pos:R:3 gdb_10865=T pbc="F F F"
C        0.05270000       1.48320000       0.03440000
C        0.07650000      -0.02870000       0.01060000
O        0.76090000      -0.44740000      -1.15070000
C        0.81230000      -1.86860000      -1.24790000
C        1.50430000      -2.44070000      -0.00530000
O        2.87260000      -2.07710000       0.02220000
C        0.77290000      -1.90830000       1.23240000
O        0.72390000      -0.48470000       1.17910000
H        1.07620000       1.86560000       0.05600000
H       -0.44910000       1.86220000      -0.85840000
H       -0.47610000       1.83370000       0.92340000
H       -0.94770000      -0.45100000      -0.01240000
H       -0.20430000      -2.28270000      -1.35200000
H        1.38500000      -2.10090000      -2.14840000
H        1.46940000      -3.53560000      -0.02340000
H        2.88980000      -1.11220000       0.03800000
H       -0.24620000      -2.32510000       1.29080000
H        1.31690000      -2.16950000       2.14270000
