17
Properties=species:S:1:pos:R:3 gdb_65374=T pbc="F F F"
O       -0.00560000       1.32960000       0.02030000
C        0.03990000      -0.05740000      -0.00550000
C       -0.47620000      -0.82900000       1.19980000
C       -1.29560000      -0.79750000      -0.06330000
N       -2.41830000       0.09280000      -0.11880000
C       -3.38450000      -0.10460000      -1.19930000
C       -3.73970000      -0.44900000       0.20440000
C        1.15390000      -0.59400000      -0.75020000
N        2.03470000      -1.05750000      -1.33890000
H       -0.95090000       1.54890000      -0.04750000
H        0.00280000      -1.76270000       1.47000000
H       -0.80030000      -0.20500000       2.02490000
H       -1.34550000      -1.71070000      -0.65600000
H       -3.76770000       0.80180000      -1.65710000
H       -3.20480000      -0.92570000      -1.88950000
H       -3.79900000      -1.50320000       0.46310000
H       -4.38250000       0.20450000       0.78590000
