15
Properties=species:S:1:pos:R:3 gdb_4598=T pbc="F F F"
C       -0.02210000       1.53290000      -0.00070000
C        0.00030000       0.02990000      -0.00380000
C       -0.04350000      -0.68660000      -1.14180000
O       -0.02570000      -2.03920000      -1.19140000
C        0.04130000      -2.81530000      -0.03220000
N        0.05670000      -4.08400000      -0.10510000
C        0.08990000      -2.07390000       1.21290000
C        0.07050000      -0.72600000       1.22730000
H        0.87680000       1.94430000       0.47350000
H       -0.07620000       1.93190000      -1.01710000
H       -0.88390000       1.91800000       0.55710000
H       -0.09750000      -0.25890000      -2.13630000
H        0.01470000      -4.38900000      -1.07780000
H        0.14200000      -2.67010000       2.11460000
H        0.10760000      -0.18810000       2.17020000
