18
Properties=species:S:1:pos:R:3 gdb_76136=T pbc="F F F"
C        0.09470000       1.58230000      -0.15530000
C        0.09710000       0.08750000      -0.01270000
N       -1.18270000      -0.52190000      -0.54270000
H       -1.38460000      -0.19660000      -1.49340000
H       -1.10550000      -1.54190000      -0.56050000
H       -1.98050000      -0.28110000       0.05600000
C        1.33400000      -0.78900000      -0.18070000
O        2.54200000      -0.20180000      -0.38670000
C        0.65760000      -0.66570000       1.17610000
C        1.36040000       0.15450000       2.30520000
O        2.35910000       0.82670000       1.89530000
O        0.86410000       0.06440000       3.42050000
H        1.02260000       1.95350000       0.28290000
H        0.05310000       1.89160000      -1.20740000
H       -0.73700000       2.04650000       0.38950000
H        1.18960000      -1.71810000      -0.74180000
H        2.71010000       0.28760000       0.50250000
H        0.07310000      -1.50530000       1.54610000
