19
Properties=species:S:1:pos:R:3 gdb_76689=T pbc="F F F"
O        0.13740000       1.47160000       1.03880000
C        0.19700000       0.29420000       0.26680000
C       -0.65370000      -0.84910000       0.76930000
O       -1.34830000      -0.64880000       1.96470000
C       -1.06430000      -0.07720000      -0.47440000
C       -2.29350000       0.81100000      -0.46260000
C       -3.55530000      -0.00430000      -0.62060000
C       -4.70390000       0.46840000      -1.40080000
O       -3.81920000      -0.52010000      -1.93170000
H        0.88640000       1.46180000       1.64490000
H        1.15880000       0.10910000      -0.20680000
H       -0.30720000      -1.87290000       0.66700000
H       -1.12760000       0.24770000       2.25420000
H       -0.90330000      -0.59380000      -1.41670000
H       -2.34850000       1.37400000       0.47310000
H       -2.22990000       1.54330000      -1.27520000
H       -3.73820000      -0.72110000       0.18050000
H       -5.70730000       0.11930000      -1.15990000
H       -4.65860000       1.44390000      -1.88460000
