19
Properties=species:S:1:pos:R:3 gdb_117210=T pbc="F F F"
C       -0.55480000       1.20730000      -0.21110000
O        0.12730000      -0.00640000       0.00460000
C        0.41510000      -0.68040000      -1.18220000
C        1.20120000      -1.94900000      -0.87040000
O        1.62470000      -2.20690000       0.22900000
C        1.47100000      -2.87300000      -2.04090000
C        2.75930000      -3.65560000      -1.97200000
C        0.30650000      -3.40330000      -2.78400000
O        1.09320000      -2.34890000      -3.32560000
H        0.03770000       1.90650000      -0.82200000
H       -1.52310000       1.05020000      -0.71260000
H       -0.73250000       1.65560000       0.76890000
H       -0.49830000      -0.92990000      -1.74900000
H        1.02940000      -0.07240000      -1.87140000
H        2.79870000      -4.22050000      -1.03800000
H        2.83680000      -4.34060000      -2.81910000
H        3.61990000      -2.98000000      -1.98980000
H        0.40780000      -4.36920000      -3.27690000
H       -0.70710000      -3.13570000      -2.48970000
