18
Properties=species:S:1:pos:R:3 gdb_98623=T pbc="F F F"
C       -0.49210000       1.34770000      -0.49670000
N       -0.87760000      -0.04800000      -0.55120000
C       -1.06360000      -0.79110000       0.57410000
O       -0.94260000      -0.35250000       1.70650000
C       -1.43390000      -2.24350000       0.36430000
C       -2.75630000      -2.77920000      -0.18410000
C       -3.16700000      -2.01900000      -1.43820000
O       -1.85090000      -2.22810000      -2.03920000
C       -1.46010000      -3.03170000      -0.91220000
H        0.52430000       1.50060000      -0.87880000
H       -1.17860000       1.96930000      -1.08180000
H       -0.52540000       1.65970000       0.54770000
H       -0.96280000      -0.52080000      -1.44110000
H       -1.11010000      -2.83440000       1.21640000
H       -3.38820000      -3.44100000       0.39120000
H       -3.92910000      -2.53590000      -2.02930000
H       -3.41460000      -0.95720000      -1.34310000
H       -0.87490000      -3.92090000      -1.11530000
