13
Properties=species:S:1:pos:R:3 gdb_20638=T pbc="F F F"
C        0.05000000       1.50270000      -0.01000000
C       -0.08500000       0.02320000       0.05540000
C       -1.11200000      -0.83800000      -0.16400000
C       -0.54080000      -2.12380000       0.07930000
N        0.73340000      -2.03040000       0.41870000
O        1.01570000      -0.67450000       0.40200000
C       -1.18350000      -3.38500000      -0.00840000
C       -1.76250000      -4.43530000      -0.09330000
H        0.81210000       1.79350000      -0.74010000
H       -0.90030000       1.95440000      -0.29970000
H        0.34970000       1.91100000       0.96050000
H       -2.12380000      -0.61230000      -0.45400000
H       -2.26140000      -5.37030000      -0.16430000
