16
Properties=species:S:1:pos:R:3 gdb_105286=T pbc="F F F"
C        0.21150000       1.33540000       0.19510000
O       -0.21080000       0.03270000      -0.20220000
C        0.55850000      -0.52760000      -1.21130000
C        1.85860000      -1.19740000      -0.85160000
C        0.65210000      -2.04930000      -1.21320000
C       -0.03420000      -2.81460000      -0.13110000
O       -0.52340000      -3.90090000      -0.30470000
C        0.45710000       0.13020000      -2.50140000
N        0.37470000       0.67590000      -3.51750000
H        1.24560000       1.32340000       0.56280000
H        0.13320000       2.04740000      -0.63540000
H       -0.45860000       1.64140000       0.99940000
H        2.68630000      -1.16550000      -1.54930000
H        2.12610000      -1.15140000       0.19920000
H        0.64470000      -2.53760000      -2.18050000
H       -0.04640000      -2.31540000       0.85890000
