20
Properties=species:S:1:pos:R:3 gdb_97719=T pbc="F F F"
C        0.10410000       1.45160000      -0.45680000
C       -0.03600000       0.14660000       0.34890000
C       -1.38430000      -0.40840000       0.31220000
C       -2.50430000      -0.85170000       0.25330000
C       -3.83260000      -1.36940000       0.24320000
C       -4.81910000      -1.33730000       1.43230000
C       -5.38790000      -2.71920000       0.97250000
C       -4.40260000      -2.70600000      -0.20180000
N       -4.56090000      -1.51800000      -1.02310000
H        1.13080000       1.82600000      -0.40100000
H       -0.14750000       1.28660000      -1.50780000
H       -0.56650000       2.22210000      -0.06720000
H        0.67390000      -0.59810000      -0.03420000
H        0.25360000       0.32700000       1.39240000
H       -4.31640000      -1.39620000       2.39930000
H       -5.50450000      -0.48340000       1.44230000
H       -5.18700000      -3.51000000       1.69880000
H       -6.44660000      -2.76010000       0.69480000
H       -3.89310000      -3.55830000      -0.63670000
H       -5.50080000      -1.12570000      -0.97310000
