17
Properties=species:S:1:pos:R:3 gdb_4145=T pbc="F F F"
O       -0.17480000       1.30260000       0.04150000
N        0.00110000      -0.09970000       0.01080000
C       -1.11950000      -0.69300000       0.00480000
C       -2.54630000      -0.15680000       0.02450000
C       -3.26800000      -1.52400000      -0.00020000
C       -2.44830000      -2.34200000       1.04150000
C       -1.31050000      -2.18440000      -0.02540000
C       -2.46060000      -2.29710000      -1.08480000
H        0.73500000       1.61760000       0.04290000
H       -2.74960000       0.43450000       0.92280000
H       -2.75990000       0.47190000      -0.84560000
H       -4.35740000      -1.51240000       0.00640000
H       -2.28600000      -1.90960000       2.03260000
H       -2.78680000      -3.37680000       1.12700000
H       -0.41950000      -2.80780000      -0.04370000
H       -2.80030000      -3.32760000      -1.21000000
H       -2.30960000      -1.82330000      -2.05870000
