19
Properties=species:S:1:pos:R:3 gdb_79033=T pbc="F F F"
O        0.19570000       1.39780000      -0.18820000
C        0.04980000       0.01010000      -0.03880000
C        0.02770000      -0.65090000       1.35570000
C       -1.46940000      -0.17990000       1.55120000
C       -2.19880000      -1.24980000       2.35580000
C       -3.09840000      -2.20450000       1.60430000
C       -1.62260000      -2.50060000       1.73690000
C       -0.68060000      -1.89730000       0.70160000
C       -1.35210000      -0.64130000       0.05590000
H       -0.35880000       1.84210000       0.46080000
H        0.72750000      -0.43800000      -0.77040000
H        0.81390000      -0.66840000       2.11380000
H       -1.69380000       0.86420000       1.78130000
H       -2.31620000      -1.12870000       3.42650000
H       -3.77030000      -2.80920000       2.20560000
H       -3.50900000      -1.91910000       0.64200000
H       -1.29260000      -3.34530000       2.33040000
H       -0.09680000      -2.56480000       0.06530000
H       -2.13910000      -0.63160000      -0.69980000
