20
Properties=species:S:1:pos:R:3 gdb_107572=T pbc="F F F"
O        0.18190000       1.19010000      -0.50950000
C       -0.00120000       0.06620000       0.33540000
C       -1.40930000      -0.48130000       0.21050000
C       -2.51000000       0.40980000       0.76410000
C       -3.86090000      -0.24790000       0.82050000
C       -4.05080000      -1.56470000       0.74680000
C       -2.93420000      -2.56220000       0.59240000
C       -1.63270000      -1.94650000       0.11440000
N       -1.61850000      -1.12100000      -1.11120000
H       -0.04360000       0.88110000      -1.39590000
H        0.72060000      -0.73050000       0.10090000
H        0.19560000       0.41080000       1.35660000
H       -2.22240000       0.73460000       1.77570000
H       -2.55330000       1.33400000       0.17320000
H       -4.71620000       0.41150000       0.94520000
H       -5.05830000      -1.96780000       0.80990000
H       -2.75380000      -3.06600000       1.55370000
H       -3.23660000      -3.36210000      -0.09830000
H       -0.76870000      -2.60400000       0.19460000
H       -2.58010000      -0.96520000      -1.41020000
