19
Properties=species:S:1:pos:R:3 gdb_76557=T pbc="F F F"
C       -0.32460000       1.44180000       0.05970000
C        0.08450000      -0.01770000       0.01440000
O        1.29180000      -0.21500000      -0.77560000
C        1.99580000      -0.81150000       0.33080000
C        0.77920000      -0.64240000       1.22960000
C        0.68790000      -0.27890000       2.68980000
O       -0.27560000       0.62630000       3.13550000
C        0.21050000      -1.63060000       2.20170000
O       -1.18700000      -1.78790000       2.13360000
H        0.46340000       2.05700000       0.50130000
H       -0.51470000       1.79360000      -0.95950000
H       -1.23610000       1.57560000       0.64850000
H       -0.73400000      -0.63540000      -0.37820000
H        2.29210000      -1.84920000       0.12370000
H        2.88710000      -0.23490000       0.61330000
H        1.60640000      -0.21000000       3.26720000
H       -1.13150000       0.22370000       2.93100000
H        0.77230000      -2.53690000       2.42520000
H       -1.48020000      -2.18900000       2.95970000
