21
Properties=species:S:1:pos:R:3 gdb_116405=T pbc="F F F"
C       -0.00030000       1.38610000       0.12860000
O       -0.02950000       0.00220000      -0.16830000
C       -1.27700000      -0.61140000      -0.00090000
C       -1.23840000      -1.97140000      -0.72090000
C       -2.55350000      -2.74420000      -0.56350000
C       -2.90910000      -2.95060000       0.91420000
C       -2.96280000      -1.60530000       1.66710000
C       -1.67220000      -0.82110000       1.47100000
O       -1.00040000      -0.41710000       2.39050000
H        0.99970000       1.74180000      -0.13090000
H       -0.73730000       1.93790000      -0.47680000
H       -0.18750000       1.57950000       1.18940000
H       -2.07730000       0.00310000      -0.45860000
H       -1.00200000      -1.79550000      -1.77460000
H       -0.40600000      -2.54990000      -0.30110000
H       -3.36490000      -2.19550000      -1.06120000
H       -2.47650000      -3.71110000      -1.07200000
H       -3.86880000      -3.46830000       1.01340000
H       -2.15480000      -3.59380000       1.38510000
H       -3.79390000      -1.00590000       1.26950000
H       -3.12640000      -1.73740000       2.73920000
