17
Properties=species:S:1:pos:R:3 gdb_112164=T pbc="F F F"
N       -0.07220000       1.30600000      -0.09010000
C       -0.10130000      -0.04590000      -0.05610000
N       -1.13170000      -0.80910000      -0.10790000
C       -0.70550000      -2.22490000      -0.08920000
C       -1.34710000      -2.92910000      -1.29000000
O       -2.74710000      -2.77500000      -1.28250000
C        0.83590000      -2.25330000      -0.08000000
C        1.21200000      -0.78520000       0.02610000
O        2.29290000      -0.26650000       0.15520000
H        0.80520000       1.74260000       0.14470000
H       -0.92090000       1.82590000       0.05520000
H       -1.11590000      -2.68230000       0.81960000
H       -0.89560000      -2.52820000      -2.21530000
H       -1.13570000      -4.00380000      -1.25620000
H       -2.90060000      -1.84100000      -1.08700000
H        1.26990000      -2.82430000       0.74460000
H        1.25500000      -2.65940000      -1.00860000
