18
Properties=species:S:1:pos:R:3 gdb_43175=T pbc="F F F"
O        0.00610000       0.05430000      -0.06170000
C       -0.01570000       1.25220000       0.03070000
C       -1.20830000       2.19710000       0.06100000
C       -0.74220000       3.25400000       1.07520000
N        0.74950000       3.20570000       1.03380000
C        1.15010000       2.23480000       0.01410000
C        1.13100000       2.82820000      -1.42790000
O       -0.07060000       3.54740000      -1.64780000
C       -1.24080000       2.79650000      -1.37650000
H       -2.15240000       1.70350000       0.29500000
H       -1.11740000       4.25090000       0.82160000
H       -1.09640000       3.00760000       2.08320000
H        1.12500000       4.12360000       0.82950000
H        2.11220000       1.76190000       0.22590000
H        1.94460000       3.54890000      -1.55890000
H        1.26040000       2.02080000      -2.16680000
H       -1.36980000       1.98430000      -2.10920000
H       -2.07810000       3.49310000      -1.47950000
