18
Properties=species:S:1:pos:R:3 gdb_9733=T pbc="F F F"
O       -0.21780000       1.28370000       0.19160000
C        0.00790000      -0.11720000      -0.02150000
C        0.69240000      -0.73870000       1.21980000
C       -0.43710000      -0.75700000       2.25740000
C       -1.67660000      -1.20010000       1.44650000
C       -1.39800000      -0.77360000      -0.02210000
C        0.76200000      -0.32620000      -1.25920000
C        1.40980000      -0.47600000      -2.26130000
H        0.63890000       1.72370000       0.15490000
H        1.02080000      -1.75630000       0.97850000
H        1.57500000      -0.16720000       1.52330000
H       -0.22560000      -1.41430000       3.10480000
H       -0.58350000       0.25450000       2.64610000
H       -1.79780000      -2.28650000       1.50320000
H       -2.59750000      -0.75900000       1.83540000
H       -2.11770000      -0.04750000      -0.40460000
H       -1.40420000      -1.63370000      -0.69470000
H        1.96980000      -0.61120000      -3.15350000
