17
Properties=species:S:1:pos:R:3 gdb_123336=T pbc="F F F"
C        0.01780000      -1.23720000       0.10940000
C       -0.02220000      -0.03670000       0.06510000
C       -0.02600000       1.41900000       0.01110000
C        1.40600000       2.01510000      -0.06790000
C        1.40830000       3.50980000      -0.11540000
C        1.35030000       4.40370000      -1.16920000
C        1.33680000       5.67930000      -0.56700000
N        1.38310000       5.60290000       0.75980000
N        1.42070000       4.27870000       1.00650000
H        0.03540000      -2.29820000       0.14780000
H       -0.60170000       1.76160000      -0.85670000
H       -0.53850000       1.82280000       0.89290000
H        1.98470000       1.65890000       0.79160000
H        1.90160000       1.62250000      -0.95990000
H        1.32780000       4.16120000      -2.21970000
H        1.30130000       6.64750000      -1.04470000
H        1.47900000       3.96440000       1.96100000
