16
Properties=species:S:1:pos:R:3 gdb_43100=T pbc="F F F"
O       -0.01040000       0.03000000      -0.03940000
C       -0.02590000       1.22170000       0.01480000
C       -1.16120000       2.26890000       0.05190000
N       -0.75790000       2.70320000       1.41750000
C        0.49200000       3.38720000       1.00280000
C       -0.04150000       4.45390000       0.01950000
C       -0.55970000       3.36930000      -0.93380000
O        0.71320000       2.78240000      -1.30770000
C        1.07760000       2.29440000       0.00580000
H       -2.18940000       1.93940000      -0.05760000
H       -1.41620000       3.35920000       1.82980000
H        1.13090000       3.69060000       1.82950000
H       -0.80150000       5.08520000       0.48820000
H        0.71100000       5.07080000      -0.47390000
H       -1.12910000       3.63520000      -1.82070000
H        2.12470000       2.01300000       0.05480000
