19
Properties=species:S:1:pos:R:3 gdb_79261=T pbc="F F F"
C       -0.08700000       1.56350000      -0.03810000
C        0.01260000       0.04160000      -0.03080000
C        0.96020000      -0.55240000      -1.06630000
C        2.30500000      -0.61230000      -0.34590000
O        2.12380000      -0.11650000       0.96470000
C        0.78170000      -0.56900000       1.18050000
C        0.32240000      -0.34540000       2.59090000
O        0.83370000      -1.95990000       0.84290000
C        1.44350000      -1.84630000      -0.42720000
H        0.89960000       2.01560000       0.09280000
H       -0.50460000       1.92200000      -0.98420000
H       -0.73920000       1.92280000       0.76500000
H       -0.97760000      -0.42120000      -0.08920000
H        0.85940000      -0.41080000      -2.13350000
H        3.28590000      -0.46160000      -0.77160000
H        0.32000000       0.72180000       2.82300000
H       -0.68870000      -0.73860000       2.72020000
H        0.99320000      -0.85690000       3.28440000
H        1.66920000      -2.77920000      -0.92210000
