13
Properties=species:S:1:pos:R:3 gdb_130768=T pbc="F F F"
O        0.01170000      -0.05540000       0.00220000
C        0.01070000       1.14130000       0.00880000
O       -1.10800000       1.94940000       0.02970000
N       -0.74920000       3.33570000       0.03200000
C        0.53720000       3.31610000       0.01300000
C        1.66960000       4.30720000       0.00170000
C        2.86760000       3.36250000      -0.02120000
C        2.46520000       2.08660000      -0.02220000
N        1.05880000       2.04710000      -0.00160000
H        1.62920000       4.96380000      -0.87450000
H        1.65530000       4.95410000       0.88590000
H        3.89350000       3.69760000      -0.03450000
H        3.02690000       1.16580000      -0.03550000
