17
Properties=species:S:1:pos:R:3 gdb_32677=T pbc="F F F"
O        0.19640000       1.41090000      -0.04580000
C        0.05540000       0.04890000      -0.40000000
C       -1.32130000      -0.49210000      -0.04490000
C       -1.49420000      -2.05990000      -0.05040000
C       -1.71100000      -1.91950000       1.45070000
C       -1.97040000      -2.25530000       2.75600000
N       -1.98940000      -1.09460000       3.50520000
C       -1.75550000      -0.08410000       2.68570000
N       -1.57570000      -0.56160000       1.42250000
H        0.27020000       1.45730000       0.91330000
H        0.19210000      -0.00930000      -1.48540000
H        0.82710000      -0.57820000       0.07090000
H       -2.10160000       0.06470000      -0.57010000
H       -2.35090000      -2.41810000      -0.62550000
H       -0.60100000      -2.60940000      -0.36020000
H       -2.14340000      -3.21710000       3.21130000
H       -1.72360000       0.95890000       2.95910000
