19
Properties=species:S:1:pos:R:3 gdb_11423=T pbc="F F F"
C        0.29110000       1.30100000       0.30160000
C       -0.10290000      -0.17470000       0.25620000
N       -1.50260000      -0.36020000      -0.14470000
C       -1.82390000      -1.74090000      -0.56230000
C       -2.22930000      -2.50670000       0.71040000
C       -2.82450000      -1.40360000       1.59000000
O       -3.46600000      -1.54190000       2.59750000
C       -2.45920000      -0.06260000       0.92370000
H        1.35340000       1.40330000       0.54480000
H        0.10320000       1.77320000      -0.66670000
H       -0.27360000       1.85250000       1.05990000
H        0.51640000      -0.68130000      -0.49170000
H        0.13160000      -0.64790000       1.22930000
H       -2.66860000      -1.70770000      -1.26230000
H       -0.97750000      -2.18320000      -1.09110000
H       -2.94380000      -3.31940000       0.56210000
H       -1.35700000      -2.92460000       1.22730000
H       -2.07000000       0.64510000       1.65850000
H       -3.38380000       0.37260000       0.51660000
