11
Properties=species:S:1:pos:R:3 gdb_131334=T pbc="F F F"
O        0.06650000       1.33690000       0.17310000
C        0.07110000       0.01040000       0.04290000
N        0.08750000      -0.70320000      -1.05020000
N        0.08530000      -2.07330000      -0.72120000
C        0.06750000      -2.07860000       0.57980000
N        0.05450000      -2.88220000       1.68590000
N        0.03980000      -2.11700000       2.81140000
N        0.04130000      -0.87810000       2.50630000
N        0.05760000      -0.82500000       1.13250000
H        0.07690000       1.70600000      -0.72050000
H        0.05800000      -3.88420000       1.76530000
