18
Properties=species:S:1:pos:R:3 gdb_88894=T pbc="F F F"
C        1.81200000       1.03690000       0.44080000
C        0.59980000       0.20670000       0.08140000
C        0.47700000      -1.22640000       0.47740000
N       -0.40950000      -0.22060000       1.05500000
C       -0.32010000       0.14250000       2.47490000
C        0.84030000      -0.30570000       3.24620000
C        1.77810000      -0.71360000       3.89620000
C        2.83180000      -1.16300000       4.63080000
C        3.76720000      -1.56190000       5.28210000
H        2.31180000       0.67700000       1.34190000
H        2.53460000       1.00930000      -0.38180000
H        1.53710000       2.08650000       0.59720000
H        0.14050000       0.50010000      -0.86260000
H       -0.00010000      -1.95320000      -0.17540000
H        1.26870000      -1.62810000       1.10670000
H       -0.40660000       1.23390000       2.54900000
H       -1.21690000      -0.26490000       2.96080000
H        4.58820000      -1.91230000       5.85700000
