19
Properties=species:S:1:pos:R:3 gdb_51568=T pbc="F F F"
O       -0.56050000       0.62870000       0.40430000
C        0.10070000       1.62930000       0.29720000
C        1.48240000       1.69140000      -0.32220000
C        1.54300000       2.72840000      -1.42910000
N        1.52540000       4.14970000      -1.02860000
C        2.72260000       3.60360000      -1.68300000
C        3.97240000       3.56510000      -0.85080000
C        4.54650000       4.83300000      -0.33480000
N        3.90920000       3.87500000       0.58400000
H       -0.27750000       2.61270000       0.65610000
H        2.19650000       1.95430000       0.46680000
H        1.74090000       0.69950000      -0.70460000
H        0.95380000       2.47000000      -2.30780000
H        0.97110000       4.70740000      -1.67060000
H        2.88800000       3.87060000      -2.72630000
H        4.65400000       2.75410000      -1.10110000
H        5.62150000       4.94040000      -0.22310000
H        4.01320000       5.75280000      -0.56210000
H        2.96530000       4.21150000       0.77600000
