18
Properties=species:S:1:pos:R:3 gdb_76725=T pbc="F F F"
O       -0.09220000       0.99400000      -0.50940000
C       -0.29940000      -0.34550000      -0.15440000
C       -0.46630000      -0.64710000       1.31420000
O       -0.42640000       0.47260000       2.16610000
C       -1.66000000      -0.74380000       0.39200000
C       -2.77050000       0.29370000       0.43130000
N       -3.06850000       0.81160000      -0.89580000
C       -4.26820000       0.65110000      -1.50660000
O       -5.24070000       0.10640000      -1.02360000
H       -0.04280000       1.48620000       0.32320000
H        0.24190000      -1.02950000      -0.80020000
H       -0.06280000      -1.56190000       1.74150000
H        0.46050000       0.52850000       2.53820000
H       -1.98320000      -1.75430000       0.15950000
H       -3.69470000      -0.14710000       0.80870000
H       -2.49950000       1.11540000       1.09960000
H       -2.30390000       1.24020000      -1.39510000
H       -4.26840000       1.08930000      -2.52500000
