17
Properties=species:S:1:pos:R:3 gdb_55205=T pbc="F F F"
C        0.00730000       1.47370000       0.00900000
C        0.03130000      -0.03090000       0.00310000
N        1.15820000      -0.63080000      -0.00860000
N       -1.20890000      -0.69840000       0.01090000
C       -1.28490000      -2.15160000       0.00600000
C       -2.76010000      -2.42550000       0.01790000
C       -3.44230000      -1.28210000       0.02810000
C       -2.50180000      -0.13180000       0.02370000
O       -2.77870000       1.04570000       0.03110000
H        1.04200000       1.81500000       0.00180000
H       -0.52800000       1.86630000      -0.85840000
H       -0.51370000       1.85960000       0.88800000
H        1.06810000      -1.64620000      -0.01170000
H       -0.79960000      -2.57540000      -0.88430000
H       -0.78420000      -2.58200000       0.88450000
H       -3.15660000      -3.43210000       0.01770000
H       -4.51210000      -1.13170000       0.03820000
