20
Properties=species:S:1:pos:R:3 gdb_104238=T pbc="F F F"
C        0.07630000       1.41460000      -0.05630000
O       -0.03980000       0.00560000       0.09040000
C        0.64620000      -0.55110000       1.18920000
C        0.12350000      -0.08110000       2.54170000
C        0.78680000      -2.07830000       0.99290000
O        2.24070000      -1.95520000       0.92290000
C        2.17170000      -0.57820000       1.05050000
N        3.07110000       0.29130000       1.03700000
C        4.45660000      -0.11870000       0.84160000
H        1.12350000       1.73530000      -0.02420000
H       -0.34960000       1.65550000      -1.03290000
H       -0.48890000       1.95660000       0.71400000
H       -0.96020000      -0.22530000       2.59470000
H        0.59460000      -0.64460000       3.35210000
H        0.34810000       0.97630000       2.70200000
H        0.48620000      -2.71320000       1.82950000
H        0.37240000      -2.43840000       0.04970000
H        4.58610000      -1.19470000       0.67930000
H        4.86980000       0.42040000      -0.01760000
H        5.04400000       0.17790000       1.71750000
