21
Properties=species:S:1:pos:R:3 gdb_91154=T pbc="F F F"
C       -1.12240000       1.09610000       0.15030000
C       -0.10650000      -0.04110000      -0.02870000
C        0.88770000       0.11250000      -1.16860000
C        2.10630000      -0.34040000      -0.85780000
C        2.18770000      -0.84900000       0.56320000
C        2.96800000       0.05760000       1.55540000
C        1.65360000       0.84500000       1.83090000
O        1.60260000       2.12140000       1.22580000
C        0.83810000      -0.32780000       1.15610000
H       -0.63260000       2.03980000       0.39310000
H       -1.71490000       1.22830000      -0.76180000
H       -1.81980000       0.85980000       0.96110000
H       -0.68880000      -0.95630000      -0.22590000
H        0.59690000       0.50120000      -2.14020000
H        2.95300000      -0.37000000      -1.53700000
H        2.41360000      -1.91990000       0.60830000
H        3.32600000      -0.49090000       2.43160000
H        3.79170000       0.65640000       1.15500000
H        1.41250000       1.01580000       2.88270000
H        1.83850000       2.00950000       0.29720000
H        0.38790000      -0.96950000       1.91710000
