19
Properties=species:S:1:pos:R:3 gdb_60939=T pbc="F F F"
O        0.75650000      -0.33600000      -1.11910000
C       -0.08060000      -0.02520000      -0.03470000
C       -1.40610000      -0.74460000      -0.17210000
O       -1.63900000      -1.48210000      -1.10000000
C        0.59330000      -0.42500000       1.28200000
C        1.81130000       0.38580000       1.83030000
C        0.82100000       1.49020000       2.30090000
C        0.14510000       0.13560000       2.67230000
C        1.54120000      -0.31590000       3.19420000
H        0.24110000      -0.93550000      -1.68190000
H       -0.31740000       1.05190000      -0.03220000
H       -2.15100000      -0.56170000       0.62880000
H        0.76250000      -1.50790000       1.26370000
H        2.77200000       0.52240000       1.33450000
H        1.15430000       2.10430000       3.14150000
H        0.34610000       2.11200000       1.54040000
H       -0.81640000      -0.01020000       3.16790000
H        1.72580000      -1.39250000       3.24030000
H        1.91230000       0.19570000       4.08590000
