15
Properties=species:S:1:pos:R:3 gdb_56095=T pbc="F F F"
C        0.00610000       1.42460000      -0.12350000
C       -0.05150000      -0.05720000       0.09840000
N       -0.17600000      -0.57240000       1.24690000
O        0.05080000      -0.70250000      -1.11160000
C        0.01690000      -2.09980000      -1.11440000
C        0.14440000      -2.59170000      -2.54480000
O        0.25660000      -1.90190000      -3.51870000
C        0.11780000      -4.06840000      -2.64540000
N        0.09540000      -5.22250000      -2.70860000
H        0.94550000       1.69580000      -0.61450000
H       -0.80700000       1.73840000      -0.78500000
H       -0.07440000       1.93870000       0.83280000
H       -0.20060000      -1.59060000       1.24630000
H        0.83780000      -2.54200000      -0.52660000
H       -0.92220000      -2.49900000      -0.69800000
