19
Properties=species:S:1:pos:R:3 gdb_78677=T pbc="F F F"
C       -0.15920000       1.58880000      -0.03040000
C       -0.01680000       0.07570000      -0.00070000
C        1.20990000      -0.59840000      -0.65610000
C        2.15710000      -0.25300000       0.55850000
C        0.74140000      -0.60680000       1.16050000
C        1.08270000      -1.88040000       0.27390000
C        0.24590000      -3.10550000       0.05240000
C        2.55050000      -1.72070000       0.65320000
O        3.50320000      -2.40030000       0.89570000
H        0.78070000       2.09320000       0.21430000
H       -0.47490000       1.93130000      -1.02210000
H       -0.91580000       1.92340000       0.68800000
H       -0.97280000      -0.40160000      -0.24940000
H        1.52000000      -0.61790000      -1.70220000
H        2.72610000       0.66040000       0.70940000
H        0.50690000      -0.63600000       2.22580000
H       -0.78500000      -2.84810000      -0.21230000
H        0.65990000      -3.71640000      -0.75610000
H        0.21850000      -3.72430000       0.95500000
