17
Properties=species:S:1:pos:R:3 gdb_49294=T pbc="F F F"
O       -0.89580000       1.19310000      -0.10930000
C        0.25940000       0.88950000      -0.29370000
C        1.41310000       1.78540000       0.05060000
N        2.56910000       1.33070000      -0.25640000
C        3.78160000       2.10510000      -0.10130000
C        3.99400000       2.79870000       1.26820000
C        3.04170000       3.92060000       1.55840000
C        1.73850000       3.94810000       1.26280000
N        0.99700000       2.96450000       0.61730000
H        0.57710000      -0.06790000      -0.74500000
H        4.62290000       1.42800000      -0.28460000
H        3.82010000       2.87220000      -0.88660000
H        3.93480000       2.02680000       2.04650000
H        5.02210000       3.17780000       1.30120000
H        3.44280000       4.80550000       2.04120000
H        1.13390000       4.80680000       1.53540000
H       -0.01270000       3.02900000       0.66410000
