17
Properties=species:S:1:pos:R:3 gdb_130073=T pbc="F F F"
N       -0.10730000       1.33770000      -0.07690000
C        0.02010000      -0.04590000       0.00360000
N       -1.03940000      -0.85780000      -0.05710000
N       -0.51180000      -2.07390000       0.13320000
N        0.79560000      -2.11010000       0.30070000
C        1.16750000      -0.82760000       0.22650000
C       -1.34090000      -3.24530000       0.14840000
C       -0.82040000      -4.53690000      -0.41790000
C       -1.01010000      -4.38340000       1.07320000
H        0.65330000       1.78370000      -0.57100000
H       -0.99710000       1.61220000      -0.47230000
H        2.19980000      -0.53640000       0.33420000
H       -2.37220000      -2.96350000      -0.01140000
H       -1.51010000      -5.15790000      -0.97840000
H        0.19830000      -4.52300000      -0.78650000
H       -0.11470000      -4.26960000       1.67240000
H       -1.83280000      -4.89650000       1.55810000
