16
Properties=species:S:1:pos:R:3 gdb_64058=T pbc="F F F"
C        0.77340000       1.28140000      -0.12300000
C       -0.11510000       0.02630000      -0.00400000
O       -1.47470000       0.39080000       0.05630000
C        0.09370000      -0.92860000      -1.19260000
N        1.37630000      -1.61940000      -1.15590000
C        1.89580000      -1.82250000      -0.03170000
O        1.38160000      -1.49190000       1.21610000
C        0.25860000      -0.71280000       1.27700000
O       -0.34860000      -0.61210000       2.30520000
H        1.82950000       1.03060000      -0.25570000
H        0.43680000       1.85390000      -0.99140000
H        0.66690000       1.90720000       0.76710000
H       -1.71490000       0.40140000       0.99380000
H       -0.71240000      -1.67310000      -1.19990000
H        0.01730000      -0.37100000      -2.13060000
H        2.84290000      -2.33730000       0.09730000
