18
Properties=species:S:1:pos:R:3 gdb_55828=T pbc="F F F"
N       -0.29450000       1.24280000       0.02990000
C       -0.09130000      -0.10440000       0.14770000
O        0.85830000      -0.62550000       0.68060000
O       -1.13740000      -0.77210000      -0.41150000
C       -1.10120000      -2.18240000      -0.27190000
C       -1.88900000      -2.89080000       0.77700000
C       -3.19990000      -2.15140000       1.06890000
C       -3.58310000      -2.23850000      -0.44240000
C       -2.26890000      -2.97580000      -0.73080000
H        0.50710000       1.82600000       0.19790000
H       -0.98750000       1.57080000      -0.62130000
H       -0.11940000      -2.59430000      -0.47400000
H       -1.42510000      -3.62900000       1.42060000
H       -3.87640000      -2.73210000       1.69870000
H       -3.09510000      -1.15000000       1.49540000
H       -4.45820000      -2.86950000      -0.60830000
H       -3.72270000      -1.29300000      -0.97280000
H       -2.15280000      -3.79400000      -1.43250000
