17
Properties=species:S:1:pos:R:3 gdb_85375=T pbc="F F F"
C       -0.00170000       1.50400000       0.07130000
C        0.02760000      -0.01060000      -0.02290000
C        0.73220000      -0.54080000      -1.26600000
C        0.82350000      -2.04350000      -1.21400000
N        0.78180000      -2.75030000      -2.26950000
N        0.96570000      -2.52620000       0.08760000
C        1.04190000      -1.78390000       1.26510000
O        1.37910000      -2.27390000       2.30880000
O        0.71540000      -0.48140000       1.16240000
H        1.01360000       1.91040000       0.04300000
H       -0.56960000       1.92160000      -0.76510000
H       -0.47390000       1.81780000       1.00520000
H       -0.99630000      -0.40690000       0.01480000
H        0.20920000      -0.25280000      -2.17900000
H        1.74530000      -0.12090000      -1.30940000
H        0.87700000      -3.74770000      -2.06560000
H        1.16580000      -3.50700000       0.22470000
