17
Properties=species:S:1:pos:R:3 gdb_54897=T pbc="F F F"
C       -0.08440000       1.52740000       0.11720000
C        0.09070000       0.02750000      -0.02110000
O        1.17700000      -0.48570000      -0.13200000
C       -1.20620000      -0.80840000      -0.01630000
C       -1.02990000      -2.24620000      -0.52800000
C       -1.52280000      -3.15770000       0.60550000
O       -1.61370000      -4.36080000       0.56500000
C       -1.87080000      -2.27250000       1.74640000
C       -1.71250000      -0.99020000       1.40710000
H        0.88240000       2.00210000       0.28650000
H       -0.52360000       1.92420000      -0.80620000
H       -0.77470000       1.77930000       0.92880000
H       -1.95550000      -0.24610000      -0.59030000
H       -1.58790000      -2.45150000      -1.44460000
H        0.02560000      -2.45600000      -0.72220000
H       -2.21970000      -2.65600000       2.69650000
H       -1.91240000      -0.14160000       2.05270000
