25
Properties=species:S:1:pos:R:3 gdb_115639=T pbc="F F F"
C        0.00880000       1.68060000      -0.19890000
C       -0.28230000       0.19990000      -0.46790000
C        0.85690000      -0.50970000      -1.18790000
C        2.19280000      -0.76860000      -0.43470000
C        2.28570000      -2.13990000      -1.15310000
C        0.76940000      -2.03470000      -1.47770000
C       -0.16290000      -2.97690000      -0.65970000
C       -0.31050000      -3.86240000      -1.92630000
C        0.20230000      -2.66520000      -2.77130000
H        0.90710000       1.80200000       0.41610000
H        0.17360000       2.22720000      -1.13420000
H       -0.82160000       2.16210000       0.32710000
H       -0.48320000      -0.31040000       0.48330000
H       -1.20230000       0.11090000      -1.06200000
H        1.06820000       0.01050000      -2.13270000
H        3.01250000      -0.06140000      -0.58260000
H        2.02550000      -0.88390000       0.64150000
H        2.89600000      -2.08230000      -2.06050000
H        2.61760000      -3.00120000      -0.56610000
H        0.25060000      -3.43720000       0.24250000
H       -1.10880000      -2.49250000      -0.39840000
H        0.39910000      -4.69450000      -1.92800000
H       -1.30420000      -4.25560000      -2.15310000
H       -0.62450000      -2.07280000      -3.17890000
H        0.91100000      -2.87140000      -3.57910000
