19
Properties=species:S:1:pos:R:3 gdb_55383=T pbc="F F F"
C        0.05040000       1.53720000      -0.01600000
C        0.00840000       0.04380000      -0.03090000
C       -0.13620000      -0.75120000      -1.09670000
C       -0.15270000      -2.20780000      -0.70780000
C        0.18800000      -2.15870000       0.80370000
N        0.14770000      -0.72640000       1.15170000
C        0.16850000      -0.24500000       2.44280000
N        0.34390000      -1.22960000       3.41170000
O        0.00300000       0.92450000       2.74560000
H        0.97670000       1.90540000       0.43390000
H       -0.02030000       1.90500000      -1.04270000
H       -0.76310000       1.95420000       0.58050000
H       -0.25580000      -0.39390000      -2.10910000
H       -1.13310000      -2.66960000      -0.88440000
H        0.57700000      -2.80910000      -1.26070000
H       -0.52300000      -2.71660000       1.41870000
H        1.19080000      -2.56670000       0.99210000
H        0.90700000      -2.03620000       3.19070000
H        0.53660000      -0.82560000       4.31580000
