23
Properties=species:S:1:pos:R:3 gdb_93922=T pbc="F F F"
C       -0.23330000       1.49790000      -0.07210000
C        0.09580000       0.00830000      -0.01880000
C        1.02570000      -0.49050000      -1.13660000
C        1.45730000      -1.88500000      -0.65770000
C        1.56850000      -1.75120000       0.90330000
C        0.83160000      -0.43700000       1.26200000
C        0.97930000      -2.99050000       1.57120000
C        1.84090000      -4.24180000       1.53410000
O       -0.11690000      -2.99180000       2.08420000
H        0.67910000       2.10350000      -0.01250000
H       -0.74760000       1.76110000      -1.00270000
H       -0.88190000       1.79250000       0.75970000
H       -0.84140000      -0.56200000      -0.08350000
H        0.54810000      -0.51180000      -2.12130000
H        1.89890000       0.17190000      -1.21070000
H        0.68080000      -2.61470000      -0.91660000
H        2.38870000      -2.23140000      -1.11300000
H        2.62720000      -1.69480000       1.17880000
H        1.56100000       0.32890000       1.55030000
H        0.14860000      -0.58440000       2.10100000
H        2.20650000      -4.43880000       0.52080000
H        2.72500000      -4.09450000       2.16590000
H        1.27430000      -5.09840000       1.90090000
