19
Properties=species:S:1:pos:R:3 gdb_116430=T pbc="F F F"
O        0.23920000       1.39300000       0.03430000
C        0.03880000       0.00370000       0.09570000
C       -1.43800000      -0.42310000       0.04800000
N       -2.15350000      -0.08630000       1.27760000
C       -3.52580000      -0.56520000       1.21500000
C       -4.22460000       0.21410000       0.11520000
O       -3.52130000       0.14120000      -1.13900000
C       -2.16350000       0.19160000      -1.13870000
N       -1.51950000       0.64680000      -2.13270000
H       -0.06620000       1.64890000      -0.84760000
H        0.56780000      -0.52260000      -0.71110000
H        0.46420000      -0.33960000       1.04720000
H       -1.45260000      -1.51910000      -0.13680000
H       -1.66430000      -0.47980000       2.07360000
H       -3.60040000      -1.64970000       1.00620000
H       -4.03370000      -0.36960000       2.16490000
H       -5.22460000      -0.17600000      -0.08770000
H       -4.30060000       1.26940000       0.40250000
H       -2.16600000       0.98390000      -2.84840000
