15
Properties=species:S:1:pos:R:3 gdb_1922=T pbc="F F F"
O       -0.08250000       1.42460000      -0.00830000
C       -0.01600000       0.03540000       0.01280000
C        0.32270000      -0.80910000       1.29830000
C       -0.36990000      -1.92030000       0.43590000
C       -1.33850000      -0.78470000      -0.05190000
C        0.59700000      -1.99600000      -0.75590000
C        0.83120000      -0.71340000      -1.03860000
H        0.81450000       1.77350000       0.02730000
H        1.37570000      -0.95320000       1.55240000
H       -0.26250000      -0.50400000       2.17110000
H       -0.73990000      -2.84360000       0.87570000
H       -2.06630000      -0.47780000       0.70530000
H       -1.80770000      -0.90440000      -1.03060000
H        0.96920000      -2.89520000      -1.22620000
H        1.43730000      -0.25230000      -1.80640000
