14
Properties=species:S:1:pos:R:3 gdb_17516=T pbc="F F F"
O       -0.81830000       0.99980000       0.33140000
C        0.30130000       0.78510000      -0.05950000
C        1.36410000       1.83300000      -0.10470000
C        1.68210000       2.78800000       1.08300000
C        2.33380000       3.67550000       0.02730000
C        2.90040000       2.68490000      -1.01190000
O        2.66740000       1.35880000      -0.53810000
C        1.46980000       3.08400000      -1.08080000
H        0.62700000      -0.21160000      -0.42780000
H        0.76440000       3.22760000       1.47750000
H        2.29550000       2.36240000       1.88270000
H        2.69280000       4.69200000       0.12130000
H        3.74390000       2.87090000      -1.66270000
H        0.82280000       3.50270000      -1.83820000
