22
Properties=species:S:1:pos:R:3 gdb_39627=T pbc="F F F"
C       -0.10350000       1.51770000      -0.02910000
C        1.44580000       1.51710000      -0.11880000
C        1.44710000       0.11320000       0.55850000
C       -0.05640000      -0.02080000       0.16970000
C        2.42030000      -0.92710000       0.08330000
C        3.96630000      -0.95700000       0.20220000
N        3.68750000      -2.28130000      -0.52890000
C        2.52810000      -2.42460000       0.47170000
C        2.68770000      -1.45290000      -1.35350000
H       -0.45580000       2.03060000       0.87050000
H       -0.66140000       1.90190000      -0.88620000
H        1.78900000       1.45500000      -1.15660000
H        1.99090000       2.32260000       0.37900000
H        1.54160000       0.22480000       1.64560000
H       -0.73350000      -0.46650000       0.90230000
H       -0.17270000      -0.55320000      -0.77990000
H        4.54490000      -0.24430000      -0.39290000
H        4.40440000      -1.09170000       1.19590000
H        2.85590000      -2.67190000       1.48600000
H        1.74150000      -3.10510000       0.13230000
H        1.91600000      -2.06010000      -1.83570000
H        3.16910000      -0.78130000      -2.07040000
