12
Properties=species:S:1:pos:R:3 gdb_53716=T pbc="F F F"
C        0.00880000       1.51030000      -0.01920000
C       -0.02220000       0.00230000       0.05780000
O       -0.05220000      -0.62460000       1.09330000
C       -0.01390000      -0.69580000      -1.22160000
C       -0.00770000      -1.30460000      -2.27310000
C       -0.00080000      -1.97310000      -3.44490000
C        0.00560000      -2.57330000      -4.50230000
C        0.01280000      -3.24180000      -5.68550000
N        0.01880000      -3.81280000      -6.69910000
H        0.90750000       1.84120000      -0.55110000
H       -0.85310000       1.87620000      -0.58770000
H       -0.00360000       1.92510000       0.98950000
