21
Properties=species:S:1:pos:R:3 gdb_79993=T pbc="F F F"
C       -0.12360000       1.53600000      -0.02290000
C        0.07340000       0.02500000       0.00430000
C        1.14480000      -0.59180000      -0.96170000
C        2.42250000      -0.05270000      -0.29070000
C        2.20900000      -0.06870000       1.02340000
C        0.78140000      -0.60770000       1.26600000
C        0.18200000      -0.35510000       2.63920000
C        0.78690000      -2.07370000       0.77680000
C        0.99640000      -2.06560000      -0.53830000
H        0.80970000       2.08000000       0.13940000
H       -0.53670000       1.84700000      -0.98900000
H       -0.83880000       1.84420000       0.74790000
H       -0.89490000      -0.46240000      -0.15280000
H        1.04020000      -0.38660000      -2.02770000
H        3.32330000       0.22670000      -0.82060000
H        2.89410000       0.19610000       1.81890000
H        0.17190000       0.71270000       2.88110000
H       -0.84830000      -0.72260000       2.69570000
H        0.75800000      -0.86430000       3.42010000
H        0.66980000      -2.92520000       1.43520000
H        1.09310000      -2.90880000      -1.20920000
