15
Properties=species:S:1:pos:R:3 gdb_79432=T pbc="F F F"
O       -0.03340000       1.49940000      -0.03850000
C        0.07470000       0.09640000      -0.03350000
C        0.07850000      -0.61190000       1.33770000
C       -1.46010000      -0.39540000       1.51110000
O       -1.75560000      -1.79420000       1.79760000
C       -0.73330000      -1.84270000       0.77510000
C       -0.21600000      -3.13010000       0.24900000
O       -0.57930000      -4.21520000       0.61920000
C       -1.28730000      -0.60310000      -0.02850000
H        0.84720000       1.87640000       0.05350000
H        0.80610000      -0.26000000      -0.77000000
H        0.83270000      -0.65080000       2.12340000
H       -2.00140000       0.37430000       2.05460000
H        0.56030000      -3.00120000      -0.54020000
H       -2.06980000      -0.62500000      -0.78540000
