18
Properties=species:S:1:pos:R:3 gdb_62977=T pbc="F F F"
C       -0.08360000       1.55500000      -0.14240000
C       -0.01650000       0.03700000      -0.03850000
C       -1.37310000      -0.59100000       0.27260000
C        0.70040000      -0.67650000      -1.20770000
O        2.04120000      -0.18360000      -1.27100000
C        1.75120000      -1.21850000      -0.33770000
C        1.12690000      -0.56480000       0.91250000
C        1.96440000       0.34920000       1.66980000
N        2.61850000       1.08460000       2.27660000
H        0.88690000       1.96910000      -0.42280000
H       -0.81950000       1.85080000      -0.89810000
H       -0.38310000       2.00030000       0.81180000
H       -2.10380000      -0.32400000      -0.49850000
H       -1.31530000      -1.68430000       0.31400000
H       -1.75670000      -0.23430000       1.23390000
H        0.26760000      -1.06930000      -2.12100000
H        2.33800000      -2.12760000      -0.38650000
H        0.70110000      -1.31110000       1.58870000
