17
Properties=species:S:1:pos:R:3 gdb_107773=T pbc="F F F"
C       -0.58800000       1.20790000       0.10300000
N        0.57020000       0.33020000       0.07610000
C        0.88910000      -0.35940000      -1.09840000
C        0.46140000      -0.04190000      -2.54830000
N        0.73390000      -1.47760000      -2.92930000
C        1.99220000      -1.86820000      -2.21490000
C        0.63990000      -1.90320000      -1.53560000
C        2.36560000      -0.75110000      -1.29810000
O        3.35310000      -0.41710000      -0.70230000
H       -0.53900000       2.04810000      -0.60820000
H       -1.49640000       0.63580000      -0.11470000
H       -0.69660000       1.62220000       1.10880000
H        1.39800000       0.72580000       0.50530000
H       -0.60970000       0.13280000      -2.67270000
H        1.03310000       0.70980000      -3.10570000
H        2.58280000      -2.67300000      -2.62860000
H        0.09520000      -2.75090000      -1.14310000
