21
Properties=species:S:1:pos:R:3 gdb_38267=T pbc="F F F"
C       -0.01430000       1.65870000       0.20520000
C        1.43670000       1.16970000       0.05100000
O        1.09770000       0.01340000       0.93530000
C       -0.01230000       0.12020000      -0.04700000
C       -1.15660000      -0.82200000      -0.24300000
C       -1.75340000      -0.46930000      -1.63330000
C       -0.70290000      -0.38770000      -2.76670000
C        0.42040000       0.64980000      -2.50840000
C        1.03410000       0.28130000      -1.16360000
H       -0.29170000       1.94930000       1.21920000
H       -0.43180000       2.32590000      -0.55110000
H        2.37140000       1.68790000       0.26780000
H       -0.77800000      -1.85160000      -0.24370000
H       -1.91780000      -0.74560000       0.54060000
H       -2.51510000      -1.21000000      -1.89770000
H       -2.27420000       0.49420000      -1.55870000
H       -0.24390000      -1.37730000      -2.89720000
H       -1.21230000      -0.15830000      -3.70910000
H        1.15700000       0.61930000      -3.31830000
H       -0.00370000       1.65950000      -2.50690000
H        1.67750000      -0.60090000      -1.23730000
