14
Properties=species:S:1:pos:R:3 gdb_132791=T pbc="F F F"
N       -0.00380000       1.43570000      -0.15380000
C       -0.00830000       0.04830000      -0.06960000
C       -1.19130000      -0.69940000      -0.09480000
O       -2.35180000       0.01270000      -0.13330000
C       -1.12690000      -2.09200000      -0.07300000
C        0.11930000      -2.70080000      -0.02110000
N        1.26510000      -2.00900000       0.01540000
C        1.16740000      -0.70500000      -0.00730000
F        2.31190000      -0.00580000       0.04250000
H        0.83270000       1.86280000       0.21580000
H       -0.85130000       1.86960000       0.18250000
H       -3.09990000      -0.59300000      -0.12890000
H       -2.03520000      -2.68630000      -0.09430000
H        0.20640000      -3.78250000      -0.00510000
