22
Properties=species:S:1:pos:R:3 gdb_111922=T pbc="F F F"
C       -0.10500000       1.59520000      -0.08760000
C       -0.01690000       0.06900000      -0.17100000
C       -1.38350000      -0.60520000       0.02170000
N       -2.30210000      -0.22540000      -1.06780000
C       -2.63480000      -1.29680000      -1.66400000
C       -3.51480000      -1.40530000      -2.86280000
O       -2.15800000      -2.48200000      -1.19610000
C       -1.40470000      -2.17180000       0.00700000
C       -0.08260000      -2.92050000      -0.03230000
H        0.87520000       2.05510000      -0.24670000
H       -0.79710000       1.98100000      -0.83990000
H       -0.46820000       1.91520000       0.89570000
H        0.39470000      -0.22320000      -1.14450000
H        0.67790000      -0.30390000       0.59140000
H       -1.80130000      -0.24510000       0.97020000
H       -2.98130000      -1.90130000      -3.67980000
H       -4.39500000      -2.01450000      -2.63390000
H       -3.82900000      -0.41150000      -3.17930000
H       -2.00270000      -2.54110000       0.84900000
H        0.53640000      -2.59850000      -0.87340000
H        0.47770000      -2.75850000       0.89340000
H       -0.26550000      -3.99390000      -0.13310000
