19
Properties=species:S:1:pos:R:3 gdb_102197=T pbc="F F F"
O        0.28480000       1.17140000      -0.03720000
C        0.01700000      -0.21140000      -0.13330000
C       -1.47620000      -0.54960000       0.00650000
C       -1.64030000      -2.08320000      -0.08190000
C       -3.02400000      -2.52340000      -0.23860000
N       -4.11910000      -2.86610000      -0.37700000
N       -1.95640000      -0.07910000       1.30160000
C       -2.45660000       1.30000000       1.35570000
C       -3.39760000       0.15580000       1.43520000
H        0.13880000       1.42900000       0.87830000
H        0.36430000      -0.52300000      -1.12430000
H        0.58240000      -0.78430000       0.61800000
H       -2.02180000      -0.07970000      -0.83000000
H       -1.06470000      -2.46690000      -0.93210000
H       -1.22640000      -2.53500000       0.82610000
H       -2.19370000       1.85690000       2.25100000
H       -2.44490000       1.88010000       0.43640000
H       -4.02720000      -0.03610000       0.57060000
H       -3.82940000      -0.14070000       2.38580000
