16
Properties=species:S:1:pos:R:3 gdb_11265=T pbc="F F F"
O        0.06050000       1.42250000      -0.01710000
C        0.01010000       0.00340000       0.00440000
C        0.62960000      -0.56930000       1.30580000
C       -0.56920000      -0.76880000       2.19560000
C       -1.71960000      -0.74170000       1.50030000
C       -1.44760000      -0.51680000       0.01840000
C       -3.02490000      -0.93170000       2.01210000
C       -4.15600000      -1.08330000       2.40010000
H       -0.41800000       1.74140000       0.75710000
H        0.55370000      -0.31110000      -0.88920000
H        1.14160000      -1.52510000       1.12300000
H        1.37950000       0.11810000       1.71160000
H       -0.50280000      -0.94640000       3.26240000
H       -2.12580000       0.20470000      -0.44650000
H       -1.55030000      -1.46060000      -0.53260000
H       -5.14640000      -1.22240000       2.75650000
