19
Properties=species:S:1:pos:R:3 gdb_34020=T pbc="F F F"
C        0.01860000      -1.18160000       0.03050000
C        0.01420000       0.02120000      -0.00270000
C       -0.01400000       1.45860000      -0.02930000
C        0.47670000       2.14030000      -1.29550000
C        1.32580000       2.19720000      -0.05510000
C        1.45670000       3.49730000       0.73910000
O        0.42210000       3.71280000       1.68270000
C       -0.86060000       3.56580000       1.10660000
C       -1.14390000       2.09720000       0.77960000
H        0.02810000      -2.24280000       0.05800000
H        0.79420000       1.50210000      -2.11140000
H       -0.03220000       3.04870000      -1.60470000
H        2.20640000       1.56490000      -0.04920000
H        2.38370000       3.48440000       1.31840000
H        1.50810000       4.35440000       0.04600000
H       -1.57980000       3.93100000       1.84500000
H       -0.95550000       4.20250000       0.21040000
H       -2.09730000       2.00080000       0.24700000
H       -1.24010000       1.54890000       1.72210000
