22
Properties=species:S:1:pos:R:3 gdb_109341=T pbc="F F F"
C       -0.24500000       1.56350000      -0.08260000
C        0.08700000       0.06450000       0.02300000
C        0.79120000      -0.49480000      -1.18850000
C        2.06720000      -0.89170000      -1.17320000
C        2.77260000      -1.48310000      -2.37090000
C        1.80770000      -2.26450000      -3.28440000
C        0.51360000      -1.49790000      -3.52950000
N       -0.65550000      -1.90920000      -2.72020000
C        0.01140000      -0.60620000      -2.45640000
H        0.66600000       2.15610000      -0.21420000
H       -0.90580000       1.77630000      -0.92920000
H       -0.75020000       1.91380000       0.82310000
H        0.70980000      -0.10320000       0.90880000
H       -0.84330000      -0.49740000       0.18300000
H        2.64100000      -0.80060000      -0.25280000
H        3.26570000      -0.68260000      -2.94270000
H        3.57990000      -2.14460000      -2.03750000
H        2.29640000      -2.49940000      -4.23600000
H        1.55380000      -3.21520000      -2.80560000
H        0.31810000      -1.19520000      -4.55540000
H       -1.50980000      -1.74610000      -3.24960000
H       -0.53580000       0.28540000      -2.75690000
