20
Properties=species:S:1:pos:R:3 gdb_22937=T pbc="F F F"
C       -0.28850000       1.46710000      -0.06580000
C       -0.00430000      -0.01350000      -0.02130000
C       -0.71750000      -0.89990000       0.99480000
C        0.76900000      -0.71300000       1.09090000
C        1.64750000      -1.80020000       0.48160000
C        1.11190000      -2.00790000      -0.95700000
C        0.36700000      -0.72680000      -1.27400000
N        0.11810000      -0.22100000      -2.41680000
O        0.59190000      -1.04600000      -3.45830000
H        0.55620000       2.01770000      -0.49190000
H       -1.16320000       1.67640000      -0.68920000
H       -0.48290000       1.85690000       0.93810000
H       -1.33560000      -0.38040000       1.71920000
H       -1.11660000      -1.85910000       0.68040000
H        1.16110000      -0.13460000       1.92070000
H        2.68490000      -1.45020000       0.44660000
H        1.63970000      -2.72610000       1.06620000
H        1.89900000      -2.18990000      -1.69120000
H        0.42900000      -2.86310000      -1.02230000
H        0.38100000      -0.52270000      -4.23840000
