20
Properties=species:S:1:pos:R:3 gdb_98865=T pbc="F F F"
C       -0.03200000       1.55960000       0.03650000
C        0.01370000       0.03380000      -0.02430000
C        0.72990000      -0.46690000      -1.27710000
O        1.19780000       0.28690000      -2.11540000
N        0.83020000      -1.82450000      -1.42930000
C        1.50350000      -2.41040000      -2.60610000
C        1.39540000      -3.94590000      -2.39000000
C        0.65130000      -4.06340000      -1.07800000
C        0.36750000      -2.85210000      -0.59820000
H        0.97660000       1.97910000       0.03810000
H       -0.55040000       1.96800000      -0.83390000
H       -0.55060000       1.89090000       0.94070000
H        0.52010000      -0.37200000       0.86090000
H       -1.00160000      -0.38290000      -0.00530000
H        1.00660000      -2.06920000      -3.51760000
H        2.53590000      -2.05480000      -2.64970000
H        0.85760000      -4.43280000      -3.21200000
H        2.38370000      -4.41830000      -2.34510000
H        0.39060000      -4.99820000      -0.60380000
H       -0.15290000      -2.60070000       0.31370000
