15
Properties=species:S:1:pos:R:3 gdb_31939=T pbc="F F F"
C        0.00720000       1.43790000       0.04530000
O        0.00680000       0.01820000      -0.00060000
C        0.60750000      -0.63570000       1.00180000
C        0.73700000      -2.00540000       1.17880000
N        1.41460000      -2.26360000       2.32490000
C        1.70940000      -1.09270000       2.86430000
N        1.22440000      -0.05860000       2.07110000
C        2.42720000      -0.80520000       4.09620000
O        2.89010000      -1.62070000       4.85880000
H        1.02960000       1.83740000       0.02600000
H       -0.52260000       1.77250000      -0.84650000
H       -0.51880000       1.80840000       0.93490000
H        0.36900000      -2.78220000       0.52730000
H        1.31680000       0.92560000       2.25990000
H        2.52270000       0.29180000       4.29380000
