19
Properties=species:S:1:pos:R:3 gdb_54115=T pbc="F F F"
C       -0.07160000       1.51260000       0.19380000
C        0.08750000       0.02240000      -0.05250000
O        1.18200000      -0.47760000      -0.21560000
C       -1.17930000      -0.79090000      -0.06430000
O       -2.36050000      -0.03530000       0.07870000
C       -1.40130000      -2.07540000      -0.84970000
C       -0.15890000      -2.96910000      -0.94830000
C       -0.08410000      -2.99630000       0.61460000
C       -1.33560000      -2.11450000       0.67080000
H        0.91780000       1.96550000       0.26630000
H       -0.62820000       1.98110000      -0.62590000
H       -0.65090000       1.69650000       1.10290000
H       -2.62020000       0.28900000      -0.79020000
H       -2.27520000      -2.11700000      -1.49150000
H       -0.40900000      -3.94850000      -1.36350000
H        0.70290000      -2.55870000      -1.47290000
H       -0.27790000      -3.99130000       1.02170000
H        0.82240000      -2.59140000       1.06540000
H       -2.14500000      -2.17250000       1.38850000
