19
Properties=species:S:1:pos:R:3 gdb_73287=T pbc="F F F"
O       -0.05120000       1.39670000       0.06400000
C        0.05780000      -0.00330000      -0.01430000
C        0.17270000      -0.67210000      -1.40820000
O       -0.89520000      -1.58120000      -1.06200000
C       -1.32050000      -0.70660000       0.00930000
C       -1.76800000      -1.39810000       1.28400000
O       -0.70680000      -1.91900000       2.06130000
C        0.28490000      -0.94170000       2.32200000
C        1.02280000      -0.59300000       1.02930000
H        0.83330000       1.77120000       0.13300000
H       -0.11510000       0.01050000      -2.21960000
H        1.09730000      -1.19940000      -1.66590000
H       -2.11000000      -0.02460000      -0.33880000
H       -2.34990000      -0.67230000       1.87820000
H       -2.42180000      -2.24030000       1.03680000
H       -0.16680000      -0.03830000       2.76560000
H        0.96540000      -1.37950000       3.05740000
H        1.46970000      -1.51470000       0.64500000
H        1.84050000       0.11370000       1.22190000
