19
Properties=species:S:1:pos:R:3 gdb_116971=T pbc="F F F"
O       -0.09120000       1.46610000       0.01140000
C        0.03670000       0.05460000       0.00210000
C       -1.38360000      -0.52220000       0.01230000
C       -1.39340000      -1.97960000       0.00410000
C       -1.36170000      -3.18380000      -0.00290000
C       -1.37590000      -4.64160000      -0.01010000
C       -2.81870000      -5.21550000       0.00110000
C       -2.83360000      -6.67220000      -0.00610000
C       -2.81080000      -7.87390000      -0.01270000
H        0.79050000       1.84940000       0.00500000
H        0.56860000      -0.30160000      -0.89260000
H        0.58530000      -0.31170000       0.88260000
H       -1.90490000      -0.13790000       0.89750000
H       -1.92150000      -0.12790000      -0.85860000
H       -0.85190000      -5.02380000      -0.89390000
H       -0.83470000      -5.03270000       0.85930000
H       -3.34500000      -4.83790000       0.88520000
H       -3.36220000      -4.82900000      -0.86860000
H       -2.80790000      -8.93560000      -0.01900000
