16
Properties=species:S:1:pos:R:3 gdb_32377=T pbc="F F F"
C       -0.18320000       1.55940000       0.05510000
C        0.14300000       0.06130000      -0.06240000
C        0.76930000      -0.50710000       1.17770000
C        2.04340000      -0.97400000       1.32500000
O        2.27810000      -1.40180000       2.58790000
C        1.11900000      -1.20590000       3.28180000
C        0.16700000      -0.66120000       2.46650000
C        1.09340000      -1.57670000       4.64320000
N        1.04840000      -1.87300000       5.76240000
H        0.72260000       2.14350000       0.24320000
H       -0.64380000       1.92830000      -0.86600000
H       -0.87870000       1.75030000       0.87850000
H       -0.77620000      -0.49180000      -0.29150000
H        0.81750000      -0.10260000      -0.90980000
H        2.87240000      -1.06660000       0.64170000
H       -0.84090000      -0.40780000       2.75610000
