27
Properties=species:S:1:pos:R:3 gdb_76209=T pbc="F F F"
C        0.10450000       0.42410000      -0.67580000
C        1.06030000      -0.68650000      -0.25680000
C        2.55340000      -0.68400000      -0.75150000
C        2.86080000      -1.72210000      -1.83130000
C        3.09570000       0.68210000      -1.18110000
C        2.98710000      -1.08570000       0.69440000
C        1.54950000      -0.79900000       1.23390000
C        1.46300000       0.49520000       2.04800000
C        0.91300000      -1.94510000       2.02080000
H        0.48180000       1.41970000      -0.42740000
H       -0.07310000       0.39910000      -1.75690000
H       -0.86820000       0.30800000      -0.18440000
H        0.60810000      -1.64440000      -0.54090000
H        2.37740000      -1.46170000      -2.78100000
H        3.93920000      -1.79190000      -2.01890000
H        2.50840000      -2.71710000      -1.53930000
H        2.92070000       1.45890000      -0.43190000
H        4.17850000       0.62320000      -1.34300000
H        2.63930000       1.01710000      -2.11950000
H        3.26560000      -2.14120000       0.77410000
H        3.79090000      -0.48730000       1.13540000
H        1.92470000       1.34490000       1.53790000
H        0.42250000       0.76330000       2.26440000
H        1.97870000       0.37130000       3.00750000
H        1.40590000      -2.08190000       2.99100000
H       -0.14900000      -1.75100000       2.21540000
H        0.98450000      -2.89160000       1.47440000
