15
Properties=species:S:1:pos:R:3 gdb_132150=T pbc="F F F"
C        0.12220000       1.46860000       0.03390000
C       -0.00650000      -0.02520000       0.02170000
C       -0.13590000      -0.70810000      -1.12330000
O       -0.25820000      -2.07600000      -1.20230000
C       -0.24410000      -2.74350000      -0.04760000
F       -0.36850000      -4.03230000      -0.27120000
C       -0.12200000      -2.19730000       1.16810000
C        0.01070000      -0.75030000       1.30580000
N        0.13540000      -0.08570000       2.40090000
H        1.05570000       1.76340000       0.52280000
H        0.09810000       1.88410000      -0.97680000
H       -0.68420000       1.91270000       0.62540000
H       -0.15950000      -0.27190000      -2.11230000
H       -0.12360000      -2.84230000       2.03730000
H        0.13100000      -0.71670000       3.20470000
