23
Properties=species:S:1:pos:R:3 gdb_105107=T pbc="F F F"
C        0.11810000       1.35730000      -0.01320000
O       -0.10590000       0.00250000      -0.31600000
C       -1.38460000      -0.54250000      -0.09580000
C       -2.40030000       0.10830000       0.80960000
C       -2.61530000       0.08870000      -0.69620000
C       -1.28060000      -2.04690000      -0.09310000
C       -0.56220000      -2.75740000      -1.27840000
C        0.06040000      -3.74640000      -0.25630000
C       -0.27030000      -2.73300000       0.87220000
H        1.14220000       1.57690000      -0.32580000
H       -0.55760000       2.03400000      -0.55680000
H        0.03030000       1.56410000       1.06240000
H       -3.00660000      -0.53650000       1.43710000
H       -2.17440000       1.06820000       1.25800000
H       -2.50910000       1.03330000      -1.21830000
H       -3.37410000      -0.56440000      -1.11360000
H       -2.28350000      -2.46330000       0.04650000
H       -1.18670000      -3.16770000      -2.07600000
H        0.19260000      -2.10200000      -1.71830000
H       -0.52960000      -4.66350000      -0.16580000
H        1.10810000      -4.02290000      -0.39530000
H        0.57240000      -2.06860000       1.07660000
H       -0.65560000      -3.12330000       1.81770000
