15
Properties=species:S:1:pos:R:3 gdb_32398=T pbc="F F F"
O       -0.03170000       1.43070000       0.00710000
C        0.00230000       0.01150000       0.00190000
C       -1.40690000      -0.48610000       0.01260000
C       -2.56190000       0.25910000       0.02360000
N       -3.58140000      -0.65790000       0.03020000
C       -3.01570000      -1.90710000       0.02290000
N       -1.69360000      -1.82360000       0.01230000
C       -3.79700000      -3.08440000       0.02690000
C       -4.49090000      -4.06830000       0.03060000
H        0.87440000       1.75050000       0.00120000
H        0.52090000      -0.37900000      -0.88810000
H        0.53640000      -0.38530000       0.87980000
H       -2.73190000       1.32120000       0.02730000
H       -4.56860000      -0.46270000       0.03880000
H       -5.08820000      -4.94630000       0.03380000
