13
Properties=species:S:1:pos:R:3 gdb_42174=T pbc="F F F"
O        0.12320000       0.66940000       1.42150000
C        0.01210000       1.41400000       0.46910000
C        1.11950000       1.78410000      -0.37280000
C        2.03940000       2.09600000      -1.08260000
C       -1.34800000       1.98280000       0.11720000
C       -2.45770000       0.95310000       0.07010000
N       -2.37360000       1.88630000       1.17230000
C       -1.40510000       3.13850000      -0.74420000
N       -1.44190000       4.05170000      -1.45110000
H        2.85160000       2.37600000      -1.70990000
H       -3.27070000       1.12160000      -0.62870000
H       -2.15270000      -0.07830000       0.22240000
H       -1.91930000       1.42940000       1.96560000
