21
Properties=species:S:1:pos:R:3 gdb_101919=T pbc="F F F"
C       -0.16790000       1.58990000       0.05670000
C       -0.09260000       0.06140000      -0.00330000
C       -1.47540000      -0.63910000      -0.03500000
C       -2.23370000      -0.35460000      -1.31700000
C       -3.69860000      -0.27050000      -1.35370000
O       -2.89370000       0.90950000      -1.41290000
C       -1.24880000      -2.14780000       0.10140000
C       -1.39890000      -2.73860000       1.48970000
O       -0.94430000      -2.82200000      -0.85690000
H        0.83840000       2.01960000       0.08560000
H       -0.69270000       2.00240000      -0.80760000
H       -0.70020000       1.92350000       0.95400000
H        0.46980000      -0.25980000      -0.88810000
H        0.47070000      -0.30750000       0.86370000
H       -2.07070000      -0.27710000       0.81230000
H       -1.72030000      -0.66740000      -2.22500000
H       -4.23340000      -0.51960000      -2.26860000
H       -4.26960000      -0.39770000      -0.43420000
H       -0.82660000      -2.16040000       2.22320000
H       -2.45020000      -2.68410000       1.79760000
H       -1.07320000      -3.77950000       1.49370000
