18
Properties=species:S:1:pos:R:3 gdb_53405=T pbc="F F F"
C       -0.12170000       1.50450000       0.13220000
C       -0.05780000       0.05150000       0.08260000
C       -0.01120000      -1.15140000       0.04190000
C        0.05180000      -2.60260000      -0.00760000
C        0.33100000      -3.36620000       1.33720000
C       -1.02630000      -4.10130000       1.15130000
N       -1.23990000      -3.31630000      -0.06180000
C       -2.31340000      -3.23180000      -0.87650000
O       -3.32810000      -3.88580000      -0.74120000
H        0.44660000       1.95680000      -0.68770000
H       -1.15670000       1.85420000       0.05300000
H        0.28670000       1.88780000       1.07350000
H        0.72700000      -2.91690000      -0.81430000
H        1.21690000      -4.00040000       1.31630000
H        0.37240000      -2.70570000       2.20220000
H       -0.95890000      -5.17850000       0.96800000
H       -1.77860000      -3.92390000       1.92570000
H       -2.16010000      -2.49160000      -1.68750000
