21
Properties=species:S:1:pos:R:3 gdb_119872=T pbc="F F F"
C        0.05050000       1.54440000      -0.22590000
C       -0.02810000       0.04220000       0.04610000
O        0.47920000      -0.66550000      -1.08830000
C        1.42890000      -1.64410000      -0.67960000
C        1.60180000      -1.42510000       0.79450000
C        0.78220000      -0.46750000       1.22280000
C        0.60540000       0.04020000       2.62500000
C        1.55540000       1.18860000       2.98140000
O        1.27060000       1.57130000       4.31760000
H        1.09150000       1.86160000      -0.33890000
H       -0.48360000       1.77840000      -1.15120000
H       -0.41070000       2.11600000       0.58630000
H       -1.09120000      -0.22460000       0.19170000
H        1.05630000      -2.65780000      -0.90470000
H        2.36110000      -1.51270000      -1.25030000
H        2.28550000      -2.00550000       1.40280000
H       -0.42240000       0.38980000       2.77990000
H        0.77650000      -0.76680000       3.34500000
H        2.59540000       0.84380000       2.87190000
H        1.41440000       2.02900000       2.28570000
H        1.85200000       2.30030000       4.55260000
