11
Properties=species:S:1:pos:R:3 gdb_23680=T pbc="F F F"
O        0.09750000       1.30390000       0.12660000
C        0.07200000      -0.03030000       0.05870000
N        0.07630000      -0.58120000      -1.15660000
C        0.05010000      -1.91690000      -1.18080000
C        0.02030000      -2.69450000      -0.03340000
C        0.01980000      -1.97040000       1.15590000
F       -0.00750000      -2.62180000       2.30600000
N        0.04480000      -0.66130000       1.23300000
H        0.11530000       1.62100000      -0.78720000
H        0.05330000      -2.38000000      -2.16400000
H       -0.00090000      -3.77460000      -0.04800000
