12
Properties=species:S:1:pos:R:3 gdb_8992=T pbc="F F F"
O       -0.17720000       0.86150000       0.88740000
C        0.23820000       1.48570000      -0.04890000
C        1.71730000       1.52330000      -0.41700000
O        1.99190000       2.44670000      -1.47650000
C        1.87820000       3.74780000      -1.13150000
O        1.54450000       4.13130000      -0.03820000
C        2.21050000       4.60810000      -2.24140000
C        2.47500000       5.37010000      -3.13140000
H       -0.42600000       2.05360000      -0.73680000
H        2.30340000       1.75860000       0.47500000
H        2.01690000       0.54520000      -0.80250000
H        2.70940000       6.04480000      -3.91890000
