16
Properties=species:S:1:pos:R:3 gdb_34390=T pbc="F F F"
N       -0.04640000      -1.12490000      -0.22530000
C       -0.03930000       0.02520000      -0.11070000
C       -0.01230000       1.47840000       0.05970000
O       -0.36830000       2.16260000      -1.16740000
C        0.83870000       2.96240000      -1.11780000
C        1.36520000       2.21360000       0.12610000
C        1.40150000       2.97000000       1.46510000
C        0.00480000       2.78480000       2.01200000
C       -0.75300000       1.97040000       1.27810000
H        1.42890000       2.84710000      -2.03240000
H        0.61670000       4.02480000      -0.95950000
H        2.24270000       1.59700000      -0.06030000
H        2.15400000       2.56020000       2.15000000
H        1.65290000       4.02960000       1.33110000
H       -0.32540000       3.27550000       2.92130000
H       -1.77760000       1.68550000       1.48000000
