19
Properties=species:S:1:pos:R:3 gdb_108344=T pbc="F F F"
C       -0.03330000       1.39750000       0.00920000
O        0.01620000      -0.01780000       0.00770000
C        0.63810000      -0.55270000      -1.11610000
C       -0.06400000      -0.46590000      -2.50710000
C        0.04290000      -2.01900000      -2.64390000
C        0.72780000      -2.10080000      -1.24800000
C        2.27040000      -1.97070000      -1.22280000
O        2.66760000      -1.11870000      -2.31000000
C        2.20310000      -0.50460000      -1.10540000
H        0.97050000       1.84530000      -0.01940000
H       -0.60870000       1.78560000      -0.84300000
H       -0.52680000       1.69840000       0.93580000
H       -1.09360000      -0.11140000      -2.41250000
H        0.45400000       0.11450000      -3.27210000
H       -0.92330000      -2.52570000      -2.68210000
H        0.66150000      -2.36240000      -3.47380000
H        0.29730000      -2.73600000      -0.47490000
H        3.01010000      -2.68110000      -0.87060000
H        2.86100000       0.20800000      -0.61900000
