18
Properties=species:S:1:pos:R:3 gdb_20908=T pbc="F F F"
C       -0.09050000       1.58280000      -0.07910000
C        0.05530000       0.06030000      -0.03420000
N        0.76200000      -0.47000000      -1.18790000
N        0.08220000      -0.63830000      -2.34480000
C        0.99400000      -1.06460000      -3.21260000
C        2.26770000      -1.16850000      -2.62180000
C        2.08580000      -0.77240000      -1.30900000
C        3.06140000      -0.67030000      -0.18140000
H        0.88680000       2.07510000      -0.06920000
H       -0.61650000       1.88110000      -0.98940000
H       -0.66100000       1.93450000       0.78610000
H        0.59140000      -0.25370000       0.86570000
H       -0.92870000      -0.41490000      -0.01910000
H        0.70140000      -1.28790000      -4.22840000
H        3.19210000      -1.49180000      -3.07340000
H        3.14130000       0.35090000       0.20860000
H        2.79200000      -1.32140000       0.65870000
H        4.05280000      -0.97090000      -0.52660000
