12
Properties=species:S:1:pos:R:3 gdb_4416=T pbc="F F F"
O        0.04640000       1.32680000       0.00740000
C       -0.05180000      -0.00390000       0.00120000
C       -1.24110000      -0.66520000       0.00440000
C       -1.17540000      -2.07990000      -0.00310000
C        0.00850000      -2.75730000      -0.01310000
C        1.26470000      -2.06630000      -0.01670000
O        2.38830000      -2.47740000      -0.02480000
O        1.12340000      -0.62010000      -0.00850000
H        0.98600000       1.55620000       0.00330000
H       -2.16920000      -0.11440000       0.01230000
H       -2.10490000      -2.64110000      -0.00070000
H        0.06070000      -3.83740000      -0.01870000
