20
Properties=species:S:1:pos:R:3 gdb_82076=T pbc="F F F"
C       -0.33120000       1.45510000       0.04600000
C        0.00040000      -0.03070000       0.05440000
C        0.63970000      -0.60820000      -1.21850000
N        1.95220000       0.06230000      -1.35610000
C        1.81910000      -1.11910000      -0.47210000
C        1.26570000      -0.60100000       0.85160000
C        2.19860000       0.25130000       1.69910000
C        1.57900000       1.06390000       2.82360000
O        3.39360000       0.23340000       1.51440000
H        0.54440000       2.04620000      -0.23370000
H       -1.12150000       1.65580000      -0.68660000
H       -0.69610000       1.79790000       1.01910000
H       -0.88190000      -0.61310000       0.33570000
H        0.12590000      -1.01820000      -2.07950000
H        2.37370000      -0.26030000      -2.22600000
H        2.41960000      -2.00440000      -0.63430000
H        0.92160000      -1.42080000       1.49460000
H        0.77540000       0.51460000       3.32480000
H        2.35200000       1.34290000       3.54150000
H        1.13690000       1.97730000       2.41160000
