17
Properties=species:S:1:pos:R:3 gdb_90948=T pbc="F F F"
C       -0.36060000       1.52430000       0.06000000
C        0.07980000       0.07050000      -0.02540000
O        0.89550000      -0.10410000      -1.20100000
C        2.14220000      -0.68800000      -0.96670000
C        2.30450000      -1.71580000       0.13440000
O        1.21620000      -1.76130000       1.03150000
C        0.87520000      -0.39340000       1.19970000
O        2.10390000       0.31780000       1.25900000
C        2.90490000      -0.33140000       0.29240000
H        0.50050000       2.17040000       0.24730000
H       -0.83060000       1.82520000      -0.87970000
H       -1.08820000       1.66070000       0.86760000
H       -0.79460000      -0.58830000      -0.12230000
H        2.69120000      -0.82350000      -1.89230000
H        2.83350000      -2.65530000       0.04370000
H        0.33150000      -0.26450000       2.13740000
H        3.95290000      -0.06800000       0.34800000
