21
Properties=species:S:1:pos:R:3 gdb_112824=T pbc="F F F"
C        0.09490000       1.66520000       0.42430000
O        0.71590000       0.45970000       0.03720000
C        0.75150000      -0.50200000       1.05760000
C       -0.56480000      -1.26400000       1.40200000
C        0.25620000      -2.57620000       1.39520000
O       -0.31050000      -3.73670000       0.80320000
C        1.41190000      -1.84100000       0.64120000
C        1.42240000      -2.13030000      -0.86060000
O        1.84960000      -3.45650000      -1.11470000
H        0.60800000       2.12670000       1.28260000
H        0.14730000       2.34650000      -0.42800000
H       -0.96140000       1.51660000       0.69470000
H        1.21520000      -0.07870000       1.96160000
H       -1.11050000      -1.00420000       2.31120000
H       -1.25080000      -1.22150000       0.54800000
H        0.55890000      -2.87850000       2.40080000
H       -0.91890000      -3.45360000       0.11290000
H        2.41550000      -2.02030000       1.03480000
H        0.43230000      -1.93040000      -1.30300000
H        2.12380000      -1.46190000      -1.36680000
H        1.26650000      -4.02590000      -0.59560000
