17
Properties=species:S:1:pos:R:3 gdb_98909=T pbc="F F F"
C       -0.14660000       1.49980000      -0.22250000
C       -0.05840000       0.00400000       0.06900000
C        0.80790000      -0.32620000       1.27680000
O        1.27110000       0.51560000       2.00170000
C        1.05470000      -1.83580000       1.49820000
C        1.72830000      -2.16430000       2.73790000
C        2.28760000      -2.44570000       3.77220000
C        2.91690000      -2.76170000       4.93630000
C        3.47490000      -3.04580000       5.96880000
H        0.84060000       1.91360000      -0.44380000
H       -0.80000000       1.68740000      -1.07880000
H       -0.53940000       2.04060000       0.64150000
H       -1.05530000      -0.41980000       0.25770000
H        0.32700000      -0.55260000      -0.79610000
H        0.09060000      -2.35820000       1.42840000
H        1.63790000      -2.19530000       0.63760000
H        3.96650000      -3.29070000       6.87720000
