22
Properties=species:S:1:pos:R:3 gdb_118258=T pbc="F F F"
C        0.14170000       0.63790000       0.82470000
O       -0.39410000       0.23760000      -0.42630000
C       -1.49180000      -0.64090000      -0.35060000
C       -1.11510000      -2.12060000      -0.21960000
C       -0.07700000      -2.56230000      -1.24640000
O       -0.62140000      -2.32500000       1.11660000
C       -0.75200000      -3.56090000       1.63640000
N       -0.22130000      -3.85880000       2.73670000
C       -0.44890000      -5.19500000       3.24480000
H        0.89930000       1.39590000       0.61040000
H       -0.63570000       1.08470000       1.46280000
H        0.59900000      -0.19550000       1.36780000
H       -2.16050000      -0.36970000       0.48040000
H       -2.04720000      -0.52130000      -1.28870000
H       -2.04120000      -2.70330000      -0.34230000
H       -0.46950000      -2.43800000      -2.26060000
H        0.82550000      -1.95560000      -1.15070000
H        0.18480000      -3.61500000      -1.10730000
H       -1.36630000      -4.24560000       1.02820000
H       -0.93930000      -5.13950000       4.22360000
H       -1.06710000      -5.82740000       2.58590000
H        0.51220000      -5.69830000       3.40020000
