19
Properties=species:S:1:pos:R:3 gdb_52488=T pbc="F F F"
C        0.19820000       1.63170000      -0.24180000
C        0.12810000       0.18450000      -0.14700000
C        0.06980000      -1.02220000      -0.06840000
C        0.00470000      -2.37740000       0.01930000
C       -0.05380000      -3.58590000       0.09770000
C       -0.13920000      -5.02300000       0.20930000
C        0.11420000      -5.70150000       1.59850000
C       -1.02450000      -6.70270000       1.27260000
C       -1.54650000      -5.71140000       0.20020000
H        1.23730000       1.97670000      -0.29380000
H       -0.31740000       1.99640000      -1.13760000
H       -0.26750000       2.11060000       0.62720000
H        0.49990000      -5.49450000      -0.54640000
H        1.11650000      -6.09370000       1.78160000
H       -0.15720000      -5.02470000       2.41220000
H       -0.63930000      -7.62180000       0.82170000
H       -1.70490000      -6.97230000       2.08260000
H       -2.30680000      -5.03760000       0.60220000
H       -1.89470000      -6.11180000      -0.75400000
