21
Properties=species:S:1:pos:R:3 gdb_8426=T pbc="F F F"
C        0.43410000       1.32190000       0.02360000
C       -0.04770000      -0.14080000      -0.00110000
C       -1.58460000      -0.14280000      -0.05210000
C        0.54950000      -0.93090000      -1.20860000
C        1.59090000      -1.87260000      -0.62860000
C        2.67510000      -1.30730000       0.21380000
N        1.49500000      -1.91630000       0.84370000
C        0.45680000      -0.95150000       1.24210000
H        1.52410000       1.40620000       0.03250000
H        0.07040000       1.86550000      -0.85580000
H        0.05620000       1.84060000       0.91190000
H       -1.95180000       0.37590000      -0.94480000
H       -1.97810000      -1.16450000      -0.07080000
H       -2.00950000       0.36360000       0.82210000
H       -0.23080000      -1.51860000      -1.70400000
H        0.96840000      -0.25960000      -1.96570000
H        1.74970000      -2.82500000      -1.12810000
H        3.59710000      -1.86500000       0.35500000
H        2.79810000      -0.22860000       0.25340000
H        0.83800000      -0.29610000       2.03310000
H       -0.36910000      -1.52940000       1.67130000
