17
Properties=species:S:1:pos:R:3 gdb_89603=T pbc="F F F"
O       -0.06330000       1.45740000      -0.07400000
C       -0.01820000       0.06050000      -0.08750000
C        0.48800000      -0.69050000       1.20860000
C       -0.89790000      -1.33610000       1.30750000
C       -1.28640000      -2.65390000       1.92190000
C       -1.04570000      -2.69600000       3.36210000
C       -0.83130000      -2.71740000       4.54370000
O       -1.84130000      -0.25200000       1.38090000
C       -1.36660000      -0.66430000       0.08310000
H       -0.66030000       1.69600000       0.64720000
H        0.53000000      -0.24070000      -0.98310000
H        1.29150000      -1.40030000       0.99610000
H        0.76840000      -0.05500000       2.05110000
H       -2.34600000      -2.83870000       1.71000000
H       -0.71800000      -3.45540000       1.43210000
H       -0.65180000      -2.73910000       5.59010000
H       -2.11750000      -0.93970000      -0.64970000
