17
Properties=species:S:1:pos:R:3 gdb_50918=T pbc="F F F"
O        0.45010000      -0.42480000      -0.05610000
C        0.27370000       0.76300000      -0.07290000
C        1.38800000       1.78800000      -0.20300000
C        0.94000000       2.97070000      -1.07730000
C        1.98340000       4.01630000      -1.12280000
N        2.80200000       4.82830000      -1.20920000
N        0.52480000       2.45530000      -2.38000000
C        0.45270000       3.35200000      -3.52920000
C        1.51420000       2.30940000      -3.44700000
H       -0.74390000       1.20090000       0.04420000
H        1.63820000       2.15020000       0.80280000
H        2.27610000       1.30290000      -0.61520000
H        0.05150000       3.42870000      -0.62210000
H       -0.41420000       3.21180000      -4.16730000
H        0.77080000       4.38370000      -3.39730000
H        2.52720000       2.65930000      -3.26180000
H        1.43710000       1.39240000      -4.02210000
