19
Properties=species:S:1:pos:R:3 gdb_91485=T pbc="F F F"
C       -0.12610000       1.51360000      -0.16980000
C        0.05240000       0.01590000       0.01310000
O        0.92760000      -0.53870000      -1.00080000
C        1.91110000      -1.22910000      -0.21380000
C        1.06300000      -1.95890000       0.85530000
C        0.80800000      -0.46180000       1.28320000
C        2.28910000      -0.20140000       0.87870000
C        0.23820000      -0.13540000       2.62000000
O        0.83320000       0.43620000       3.50020000
H        0.81100000       2.05780000      -0.03030000
H       -0.49060000       1.71810000      -1.18060000
H       -0.86280000       1.90110000       0.54220000
H       -0.92760000      -0.47650000      -0.05820000
H        2.62570000      -1.72720000      -0.86630000
H        0.21170000      -2.54680000       0.50550000
H        1.65270000      -2.50730000       1.59120000
H        2.98630000      -0.58330000       1.62480000
H        2.57870000       0.79770000       0.55200000
H       -0.81190000      -0.48140000       2.77110000
