19
Properties=species:S:1:pos:R:3 gdb_114475=T pbc="F F F"
O        0.00910000       1.53460000       0.05450000
C        0.07110000       0.11860000       0.19380000
C       -1.29480000      -0.52860000       0.01280000
C       -1.92280000      -0.58520000      -1.42400000
C       -2.17740000      -2.11250000      -1.25010000
C       -1.07040000      -3.06370000      -1.76830000
O        0.18400000      -2.38410000      -1.65020000
C       -0.35900000      -3.00280000      -0.47640000
C       -1.44540000      -2.07820000       0.13150000
H       -0.19340000       1.72390000      -0.86710000
H        0.79670000      -0.31920000      -0.50270000
H        0.43380000      -0.06220000       1.21260000
H       -1.98890000      -0.04220000       0.70550000
H       -2.83080000       0.00940000      -1.54390000
H       -1.22850000      -0.34540000      -2.23350000
H       -3.19730000      -2.48540000      -1.33700000
H       -1.13120000      -3.84410000      -2.51910000
H        0.27690000      -3.72340000       0.02640000
H       -1.91230000      -2.48470000       1.02940000
