20
Properties=species:S:1:pos:R:3 gdb_100502=T pbc="F F F"
C        0.02820000       1.54590000       0.02770000
C       -0.03430000       0.01580000      -0.00750000
N       -1.40000000      -0.50350000      -0.04020000
C       -2.02030000      -0.68900000      -1.33670000
C       -2.02700000      -0.72050000       1.15790000
O       -1.48700000      -0.49740000       2.23260000
C       -3.38360000      -1.24480000       1.10220000
C       -4.50650000      -1.67590000       1.19040000
C       -5.85910000      -2.19710000       1.30140000
H        1.07010000       1.88150000       0.02800000
H       -0.46830000       1.99230000      -0.84010000
H       -0.45330000       1.91850000       0.93510000
H        0.48730000      -0.37140000      -0.88980000
H        0.44880000      -0.39120000       0.88280000
H       -1.45980000      -1.41860000      -1.93500000
H       -3.03930000      -1.05250000      -1.20810000
H       -2.05590000       0.25390000      -1.89700000
H       -6.19830000      -2.19610000       2.34260000
H       -6.56340000      -1.59560000       0.71660000
H       -5.91440000      -3.22660000       0.93110000
