17
Properties=species:S:1:pos:R:3 gdb_117750=T pbc="F F F"
C        0.01160000       1.52120000      -0.64350000
O        0.02450000       0.17140000      -1.05600000
C        0.86510000      -0.63590000      -0.27860000
C        0.69650000      -2.11650000      -0.70620000
O        1.66160000      -2.88840000      -0.04780000
C       -0.70300000      -2.62030000      -0.31510000
O       -1.72480000      -2.28060000      -0.84610000
C        0.86450000      -2.23660000      -2.21950000
O        1.78340000      -2.87130000      -2.67770000
H       -0.33290000       1.61960000       0.39690000
H        1.00850000       1.98020000      -0.72470000
H       -0.68050000       2.05240000      -1.29980000
H        1.92810000      -0.37750000      -0.41260000
H        0.63760000      -0.54630000       0.79650000
H        2.22050000      -3.26000000      -0.75150000
H       -0.66230000      -3.34700000       0.52560000
H        0.11050000      -1.72790000      -2.83900000
