19
Properties=species:S:1:pos:R:3 gdb_71293=T pbc="F F F"
C        0.05610000       1.44180000       0.07250000
C       -0.01340000      -0.06600000      -0.02080000
C        0.20620000      -0.69040000      -1.44670000
C       -1.07640000      -1.50220000      -1.27050000
C       -1.18000000      -2.16960000       0.08040000
O       -0.15160000      -2.72610000       0.85410000
C        1.03440000      -1.96400000       0.94210000
O        0.83070000      -0.58010000       1.01410000
C       -1.41670000      -0.70550000       0.01920000
H        1.07260000       1.79140000      -0.13180000
H       -0.62740000       1.90330000      -0.64570000
H       -0.22320000       1.76790000       1.07910000
H        0.08040000       0.08820000      -2.20380000
H        1.13940000      -1.21990000      -1.65340000
H       -1.74160000      -1.78850000      -2.07730000
H       -2.06290000      -2.79030000       0.19250000
H        1.52180000      -2.25660000       1.87570000
H        1.69260000      -2.21440000       0.09540000
H       -2.32760000      -0.21110000       0.33620000
