20
Properties=species:S:1:pos:R:3 gdb_88064=T pbc="F F F"
C       -0.19820000       1.32120000      -0.21380000
N        0.29150000      -0.04880000      -0.13490000
C        1.73220000      -0.23610000       0.03850000
C        0.78350000      -0.51930000       1.14440000
C        0.74030000       0.15510000       2.52480000
C        0.68990000      -1.26370000       3.16820000
C        0.43040000      -1.89130000       1.77410000
C       -1.00430000      -2.27700000       1.50090000
O       -1.90560000      -2.18410000       2.29680000
H        0.36030000       2.03060000       0.41760000
H       -0.13320000       1.66290000      -1.25130000
H       -1.25000000       1.34780000       0.08770000
H        2.18050000      -1.04200000      -0.53840000
H        2.35470000       0.65320000       0.14130000
H        1.58920000       0.78830000       2.79120000
H       -0.18270000       0.71910000       2.68930000
H        1.64410000      -1.57230000       3.59830000
H       -0.11110000      -1.43120000       3.88830000
H        1.08010000      -2.71570000       1.45970000
H       -1.18940000      -2.64130000       0.46760000
