21
Properties=species:S:1:pos:R:3 gdb_96109=T pbc="F F F"
C       -0.00790000       1.50440000      -0.02680000
C       -0.02470000      -0.01180000      -0.00100000
C       -0.85720000      -0.68170000       1.07540000
C        0.64680000      -0.71630000       1.15800000
O        1.28940000      -1.95020000       0.99380000
C        1.72000000      -2.22840000      -0.32810000
C        0.55880000      -2.11130000      -1.31320000
C        0.07030000      -0.65760000      -1.37140000
O       -1.20250000      -0.53350000      -2.00030000
H        0.91400000       1.88480000      -0.48290000
H       -0.85470000       1.88210000      -0.60880000
H       -0.07880000       1.92200000       0.98220000
H       -1.41090000      -0.04420000       1.75650000
H       -1.34560000      -1.61930000       0.83630000
H        1.14150000      -0.09480000       1.90180000
H        2.53830000      -1.55000000      -0.62380000
H        2.12140000      -3.24520000      -0.30200000
H        0.87150000      -2.43840000      -2.31270000
H       -0.25840000      -2.76680000      -0.99270000
H        0.82030000      -0.08090000      -1.94040000
H       -1.11740000      -0.85180000      -2.90520000
