21
Properties=species:S:1:pos:R:3 gdb_82856=T pbc="F F F"
C       -0.27250000       1.55390000       0.01910000
C        0.04530000       0.06120000      -0.01860000
C        0.78660000      -0.48320000      -1.27150000
C        2.09940000       0.27380000      -1.59430000
C        2.77630000      -0.51770000      -0.45050000
C        2.40240000       0.05530000       0.93770000
C        0.96650000      -0.49290000       1.09930000
O        1.12320000      -1.86140000       0.69330000
C        1.65290000      -1.60930000      -0.59190000
H        0.62370000       2.17920000      -0.02060000
H       -0.90870000       1.83890000      -0.82540000
H       -0.81110000       1.81190000       0.93760000
H       -0.89630000      -0.49360000       0.06780000
H        0.11580000      -0.72960000      -2.09590000
H        2.49020000      -0.01740000      -2.57410000
H        2.10360000       1.36510000      -1.53140000
H        3.82630000      -0.79440000      -0.54970000
H        3.03890000      -0.36410000       1.72150000
H        2.47180000       1.14540000       0.98630000
H        0.55380000      -0.45470000       2.10840000
H        1.85870000      -2.53480000      -1.12560000
