16
Properties=species:S:1:pos:R:3 gdb_44671=T pbc="F F F"
N       -0.09710000       1.24740000       0.24810000
C       -0.04150000       0.01240000      -0.02190000
O        1.11530000      -0.67080000      -0.35380000
C        0.76560000      -2.01550000      -0.69790000
C        1.35030000      -3.18550000       0.06270000
C        0.38650000      -4.06690000       0.35160000
C       -1.00610000      -3.58990000      -0.06330000
C       -0.69170000      -2.14800000      -0.33530000
C       -1.15450000      -0.95460000       0.03060000
H        0.83130000       1.66850000       0.19220000
H        0.96920000      -2.12840000      -1.77490000
H        2.41090000      -3.32000000       0.23480000
H        0.54500000      -5.03870000       0.80560000
H       -1.35820000      -4.13280000      -0.95230000
H       -1.76350000      -3.72720000       0.71480000
H       -2.12160000      -0.68820000       0.43110000
