18
Properties=species:S:1:pos:R:3 gdb_49195=T pbc="F F F"
O        0.02150000      -0.10480000      -0.19500000
C        0.08240000       1.07190000       0.08820000
C        1.29940000       1.87750000      -0.02890000
C        1.39710000       3.18250000       0.26560000
C        2.78520000       3.68580000      -0.00700000
C        3.71130000       3.94600000       1.21330000
C        4.24780000       2.51250000       0.97770000
N        3.56840000       2.45660000      -0.34660000
C        2.62670000       1.34210000      -0.53910000
H       -0.80910000       1.62080000       0.46540000
H        0.58590000       3.80950000       0.62130000
H        2.78360000       4.47030000      -0.77600000
H        4.44640000       4.73040000       1.02620000
H        3.21900000       4.13410000       2.16850000
H        5.33410000       2.39410000       0.92100000
H        3.85420000       1.78360000       1.69940000
H        2.95790000       0.45190000       0.00790000
H        2.55150000       1.05050000      -1.59490000
