17
Properties=species:S:1:pos:R:3 gdb_35372=T pbc="F F F"
N       -0.08460000      -1.17510000      -0.14300000
C       -0.05100000      -0.02080000      -0.08240000
C       -0.00550000       1.43420000       0.00840000
C       -0.58530000       1.99950000       1.34960000
N        0.24000000       3.17030000       1.69130000
C        1.66620000       2.92090000       1.95980000
C        2.16980000       1.61800000       1.32510000
C        1.41880000       2.02620000       0.01760000
C        1.20320000       3.43800000       0.63440000
H       -0.56680000       1.84460000      -0.83900000
H       -1.62300000       2.31760000       1.22620000
H       -0.55280000       1.25720000       2.15090000
H        2.10690000       3.44580000       2.79980000
H        3.25270000       1.64660000       1.18690000
H        1.89630000       0.66600000       1.79080000
H        1.96150000       1.92280000      -0.92000000
H        1.26590000       4.40890000       0.15840000
