17
Properties=species:S:1:pos:R:3 gdb_20548=T pbc="F F F"
C        0.13860000       1.58590000      -0.05670000
C        0.03600000       0.05260000       0.01960000
C        0.53260000      -0.60880000      -1.27770000
C        0.77620000      -0.48000000       1.21610000
N        0.12610000      -1.12300000       2.15810000
O        1.08000000      -1.48080000       3.11130000
C        2.27720000      -1.03790000       2.70640000
C        2.17100000      -0.39530000       1.51810000
H        1.17670000       1.90760000      -0.19550000
H       -0.44330000       1.96500000      -0.90270000
H       -0.24030000       2.05410000       0.85610000
H       -1.01550000      -0.21750000       0.16560000
H        1.58670000      -0.37510000      -1.46360000
H        0.43150000      -1.69680000      -1.23130000
H       -0.04490000      -0.24750000      -2.13450000
H        3.10580000      -1.25380000       3.36340000
H        2.95540000       0.06750000       0.94310000
