16
Properties=species:S:1:pos:R:3 gdb_28257=T pbc="F F F"
O       -0.12290000       1.24630000       0.04910000
C        0.06120000      -0.07120000       0.00430000
N        1.18040000      -0.72680000      -0.02170000
C        0.73560000      -2.04960000      -0.08330000
C       -0.60310000      -2.08890000      -0.08880000
C       -1.23260000      -3.43150000      -0.07080000
C        0.05630000      -4.30990000      -0.30440000
C        1.33460000      -3.41880000      -0.07580000
O       -1.08120000      -0.79470000      -0.02570000
H        0.75670000       1.64510000       0.05960000
H       -1.71790000      -3.65950000       0.88740000
H       -1.98070000      -3.59640000      -0.85370000
H        0.05740000      -5.18960000       0.34270000
H        0.05250000      -4.67090000      -1.33590000
H        2.08280000      -3.58140000      -0.85850000
H        1.82390000      -3.64480000       0.87990000
