17
Properties=species:S:1:pos:R:3 gdb_84734=T pbc="F F F"
C       -0.37670000       1.39100000      -0.05450000
N       -0.07300000      -0.03550000       0.03090000
C        0.38450000      -0.62660000      -1.16550000
C        0.28080000      -1.91040000      -1.53170000
C       -0.24870000      -2.97090000      -0.69850000
C       -0.20290000      -2.94720000       0.63920000
N        0.36640000      -1.92390000       1.41580000
C        0.12860000      -0.54800000       1.30470000
O        0.11160000       0.14410000       2.30200000
H        0.51900000       1.97720000      -0.29930000
H       -1.12820000       1.55720000      -0.83130000
H       -0.75620000       1.72580000       0.90810000
H        0.82930000       0.09560000      -1.84550000
H        0.65150000      -2.17250000      -2.51790000
H       -0.67850000      -3.84370000      -1.17740000
H       -0.59130000      -3.77580000       1.22360000
H        0.47170000      -2.14300000       2.39550000
