16
Properties=species:S:1:pos:R:3 gdb_54167=T pbc="F F F"
C       -0.46420000       1.69300000       0.37430000
C       -0.17020000       0.25540000       0.03720000
O        1.13490000      -0.05510000      -0.47160000
C        0.79140000      -0.56290000       0.83130000
C        1.50320000      -0.03630000       1.96210000
C        2.09380000       0.36970000       2.92700000
C       -1.31530000      -0.50080000      -0.62680000
N       -0.90800000      -1.45320000      -1.50690000
O       -2.47490000      -0.26480000      -0.34930000
H        0.32320000       2.11450000       1.00050000
H       -0.54370000       2.28390000      -0.54340000
H       -1.42250000       1.74820000       0.89450000
H        0.62840000      -1.63980000       0.85150000
H        2.61730000       0.73260000       3.77730000
H        0.05390000      -1.46750000      -1.80440000
H       -1.60880000      -1.94450000      -2.03650000
