17
Properties=species:S:1:pos:R:3 gdb_15390=T pbc="F F F"
C       -0.45790000       1.32490000      -0.38290000
O       -0.50860000      -0.08070000      -0.46970000
C       -1.00120000      -0.68250000       0.70460000
C       -1.04290000      -2.17140000       0.48970000
C       -1.97050000      -3.03010000       1.29180000
C       -2.24050000      -2.82210000      -0.19210000
C       -3.36280000      -2.02310000      -0.59710000
N       -4.27160000      -1.38210000      -0.91690000
H       -0.06920000       1.69540000      -1.33400000
H       -1.45560000       1.75740000      -0.21290000
H        0.20740000       1.66020000       0.42880000
H       -0.34930000      -0.44950000       1.56480000
H       -2.00780000      -0.30320000       0.94700000
H       -0.08660000      -2.60360000       0.21220000
H       -1.64250000      -4.01560000       1.60050000
H       -2.64720000      -2.54030000       1.98300000
H       -2.03080000      -3.65430000      -0.85490000
