11
Properties=species:S:1:pos:R:3 gdb_130759=T pbc="F F F"
O        0.18230000      -0.02270000      -0.00040000
C        0.01890000       1.14740000       0.00880000
O       -1.15640000       1.82740000       0.02940000
N       -0.89650000       3.22010000       0.03390000
C        0.38010000       3.29740000       0.01650000
C        1.21530000       4.53500000       0.01230000
C        0.42980000       5.76590000       0.02810000
N       -0.15290000       6.76130000       0.04030000
O        1.02530000       2.11080000       0.00030000
H        1.88360000       4.51350000       0.88200000
H        1.86190000       4.52220000      -0.87390000
