17
Properties=species:S:1:pos:R:3 gdb_32878=T pbc="F F F"
C       -0.03420000       1.35110000      -0.13080000
O        0.01780000      -0.05670000      -0.10520000
C       -1.23220000      -0.63370000       0.21450000
C       -1.11150000      -2.11740000       0.18480000
N       -1.21410000      -2.93870000       1.18660000
C       -1.03190000      -4.19580000       0.63190000
N       -1.14410000      -5.32910000       1.42880000
C       -0.82190000      -4.05970000      -0.70610000
O       -0.87910000      -2.71450000      -0.99720000
H        0.96560000       1.70680000      -0.38920000
H       -0.74990000       1.71970000      -0.88290000
H       -0.31950000       1.76840000       0.84780000
H       -1.56550000      -0.34540000       1.22140000
H       -1.99960000      -0.30470000      -0.50660000
H       -0.95200000      -5.11840000       2.39910000
H       -0.59220000      -6.11390000       1.11240000
H       -0.63600000      -4.72740000      -1.52760000
