15
Properties=species:S:1:pos:R:3 gdb_132007=T pbc="F F F"
C       -0.02430000       1.53090000       0.05400000
C       -0.00810000       0.03400000      -0.01640000
C       -0.11100000      -0.67810000      -1.16790000
F       -0.23570000      -0.02180000      -2.32380000
C       -0.09520000      -2.14440000      -1.24000000
O       -0.19010000      -2.75890000      -2.29550000
C        0.04470000      -2.76160000       0.07640000
C        0.14520000      -2.02360000       1.20720000
N        0.12010000      -0.65890000       1.16870000
H        0.90310000       1.91640000       0.49370000
H       -0.12930000       1.94830000      -0.94650000
H       -0.85950000       1.88920000       0.66720000
H        0.06630000      -3.84300000       0.12360000
H        0.24970000      -2.45940000       2.19370000
H        0.19660000      -0.13490000       2.02450000
