18
Properties=species:S:1:pos:R:3 gdb_71312=T pbc="F F F"
C        0.07540000       1.53610000      -0.19330000
C        0.05470000       0.03200000      -0.11630000
C        0.53210000      -1.00200000      -1.13610000
N        0.03580000      -1.92930000      -0.03350000
C        0.55420000      -0.92290000       1.02220000
C       -0.79800000      -0.97430000       1.76550000
C       -1.20490000       0.11210000       2.63030000
C       -1.55240000       0.99500000       3.37000000
C       -1.11840000      -0.93920000       0.25570000
H        1.10100000       1.90230000      -0.31490000
H       -0.50710000       1.88660000      -1.05270000
H       -0.34380000       1.98490000       0.71070000
H       -0.02730000      -1.10110000      -2.07300000
H        1.60850000      -1.08530000      -1.32330000
H        1.56190000      -1.01410000       1.43210000
H       -0.99650000      -1.95140000       2.21920000
H       -1.85810000       1.77670000       4.02040000
H       -2.08520000      -1.04950000      -0.23940000
