22
Properties=species:S:1:pos:R:3 gdb_87131=T pbc="F F F"
C        0.12100000       1.05590000      -1.13720000
C       -0.03770000       0.00620000      -0.05330000
C        1.15230000      -0.78760000       0.35360000
N        0.63860000       0.27940000       1.23810000
C       -1.42180000      -0.59860000       0.06400000
C       -1.97630000      -1.19940000      -1.21530000
C       -1.81300000      -1.28330000       1.36900000
C       -2.39010000       0.06400000       1.02560000
O       -2.03770000       1.20340000       1.74930000
H        1.14120000       1.45410000      -1.14900000
H       -0.08380000       0.64870000      -2.13150000
H       -0.57200000       1.88580000      -0.96210000
H        1.02110000      -1.79590000       0.73510000
H        2.09540000      -0.61130000      -0.15630000
H        1.22200000       1.10720000       1.14320000
H       -1.32800000      -1.99960000      -1.59340000
H       -2.96380000      -1.63540000      -1.03640000
H       -2.08960000      -0.45430000      -2.00970000
H       -2.44260000      -2.16540000       1.30910000
H       -1.07940000      -1.30060000       2.16800000
H       -3.43360000       0.11940000       0.72870000
H       -1.13550000       1.05540000       2.06690000
