15
Properties=species:S:1:pos:R:3 gdb_17767=T pbc="F F F"
N        0.03100000      -1.16640000      -0.02670000
C       -0.01970000      -0.02230000       0.12690000
C       -0.05760000       1.42850000       0.30990000
C        1.32420000       2.06090000       0.11110000
C        1.97580000       2.26390000      -1.28610000
C        0.99310000       3.41540000      -1.60910000
C        1.51530000       3.58090000      -0.16090000
O        2.87280000       3.26150000      -0.65510000
H       -0.80330000       1.84260000      -0.37480000
H       -0.41300000       1.63950000       1.32540000
H        2.04220000       1.68100000       0.84050000
H        2.42750000       1.52530000      -1.94740000
H        1.37840000       4.15270000      -2.31330000
H       -0.06150000       3.19020000      -1.78050000
H        1.41450000       4.42190000       0.52570000
