21
Properties=species:S:1:pos:R:3 gdb_94979=T pbc="F F F"
O       -0.07800000       1.39370000      -0.18250000
C       -0.00080000      -0.01020000      -0.00370000
C        0.57120000      -0.43860000       1.40240000
C       -0.24900000      -1.67490000       1.93230000
C       -1.23200000      -1.98450000       0.78740000
C       -2.77330000      -1.71170000       0.66580000
C       -2.48930000      -0.23650000       1.04440000
C       -1.36220000      -0.64760000       0.03990000
C       -2.48050000      -1.29880000      -0.82500000
H        0.81520000       1.75000000      -0.14800000
H        0.59940000      -0.46900000      -0.80600000
H        1.64150000      -0.65810000       1.34050000
H        0.45610000       0.41920000       2.07210000
H        0.40120000      -2.52990000       2.13370000
H       -0.74120000      -1.43160000       2.87710000
H       -0.88630000      -2.82190000       0.17070000
H       -3.59900000      -2.33780000       1.00880000
H       -3.19990000       0.51000000       0.68220000
H       -2.20160000      -0.02870000       2.07570000
H       -2.17140000      -2.09930000      -1.50350000
H       -3.20760000      -0.63020000      -1.29240000
