21
Properties=species:S:1:pos:R:3 gdb_78467=T pbc="F F F"
C        0.06180000       1.58720000      -0.01570000
C        0.03160000       0.07420000       0.02540000
C        0.61580000      -0.68780000      -1.14680000
C        1.32410000      -0.67470000       0.20420000
C        1.25780000      -2.16130000       0.61300000
C        1.53770000      -2.85650000      -0.73160000
C        0.29660000      -2.18420000      -1.38150000
C       -0.76420000      -2.66210000      -0.38400000
O       -0.10010000      -2.54940000       0.89290000
H        0.96190000       1.95430000      -0.52070000
H       -0.80580000       1.98570000      -0.55300000
H        0.05250000       2.00950000       0.99510000
H       -0.83160000      -0.34330000       0.53140000
H        0.99130000      -0.11390000      -1.98780000
H        2.24640000      -0.12860000       0.37740000
H        1.87100000      -2.43680000       1.47130000
H        2.47950000      -2.54400000      -1.18830000
H        1.48600000      -3.94880000      -0.68040000
H        0.08090000      -2.44180000      -2.41880000
H       -1.67240000      -2.04990000      -0.38250000
H       -1.05050000      -3.70760000      -0.56080000
