17
Properties=species:S:1:pos:R:3 gdb_98009=T pbc="F F F"
C       -0.00320000       1.48680000      -0.14380000
C       -0.24040000      -0.01750000      -0.24730000
C       -1.39530000      -0.50000000       0.61150000
O       -2.06310000       0.22620000       1.31470000
C       -1.66600000      -1.92880000       0.54420000
C       -1.88550000      -3.11790000       0.49720000
C       -2.14940000      -4.54880000       0.45830000
C       -3.28320000      -4.97590000      -0.44680000
O       -1.48880000      -5.31880000       1.11940000
H        0.83440000       1.78420000      -0.78010000
H       -0.89010000       2.04520000      -0.45350000
H        0.22240000       1.77680000       0.88530000
H       -0.44620000      -0.32570000      -1.28170000
H        0.64970000      -0.59020000       0.04680000
H       -3.08940000      -4.65020000      -1.47460000
H       -3.38700000      -6.06120000      -0.41050000
H       -4.21610000      -4.49750000      -0.12940000
