17
Properties=species:S:1:pos:R:3 gdb_75843=T pbc="F F F"
O        0.40340000       0.89770000      -0.77370000
C        0.03060000      -0.24320000      -0.04480000
C        0.43350000      -0.12720000       1.43160000
O        1.32810000       0.59150000       1.80140000
C       -0.53860000      -0.93780000       2.28230000
C       -1.79320000      -0.96980000       1.42050000
C       -2.29420000       0.36540000       0.89580000
C       -1.45680000      -0.52550000       0.01490000
O       -2.04360000      -1.19280000      -1.05620000
H        1.10730000       1.31910000      -0.25770000
H        0.51380000      -1.14920000      -0.45630000
H       -0.13120000      -1.94660000       2.43040000
H       -0.66180000      -0.48210000       3.26880000
H       -2.51770000      -1.76240000       1.56170000
H       -3.34710000       0.41480000       0.64410000
H       -1.87400000       1.28880000       1.28410000
H       -2.10640000      -0.57000000      -1.78950000
