17
Properties=species:S:1:pos:R:3 gdb_93185=T pbc="F F F"
C       -0.02890000       1.56410000       0.01360000
C        0.01220000       0.03860000      -0.02270000
C        0.69500000      -0.48660000      -1.28330000
N        0.83800000      -1.92980000      -1.19410000
C        1.21800000      -2.59480000      -0.05900000
O        1.49240000      -3.77210000      -0.03690000
C        1.25370000      -1.74220000       1.23620000
O        1.71580000      -2.18830000       2.26070000
N        0.75180000      -0.47200000       1.12720000
H        0.98170000       1.98270000      -0.01810000
H       -0.59620000       1.95220000      -0.83710000
H       -0.51810000       1.91700000       0.92690000
H       -1.01930000      -0.34700000      -0.01120000
H        0.08350000      -0.24730000      -2.15770000
H        1.66840000       0.01250000      -1.40530000
H        0.91730000      -2.47130000      -2.04340000
H        0.68260000       0.02430000       2.00580000
