17
Properties=species:S:1:pos:R:3 gdb_47807=T pbc="F F F"
O        0.00070000       0.06890000       0.61340000
C       -0.04530000       1.21550000       0.22490000
C       -1.34840000       1.96130000       0.02730000
C       -1.66420000       2.22010000      -1.45750000
O       -0.88970000       3.25480000      -2.02730000
C        0.40230000       2.91240000      -2.45570000
C        1.43630000       2.68220000      -1.36270000
O        1.27630000       3.35200000      -0.12710000
C        1.24110000       1.91760000      -0.10820000
H       -2.14070000       1.34940000       0.46680000
H       -1.30790000       2.92980000       0.53540000
H       -1.56250000       1.29030000      -2.03970000
H       -2.70320000       2.55230000      -1.53930000
H        0.39070000       2.02560000      -3.11290000
H        0.74270000       3.76060000      -3.06000000
H        2.45740000       2.67980000      -1.75400000
H        2.11150000       1.43350000       0.33270000
