18
Properties=species:S:1:pos:R:3 gdb_8038=T pbc="F F F"
C        0.32210000       1.55000000      -0.03310000
C        0.03800000       0.07050000       0.09270000
O        0.79910000      -0.75250000      -0.84400000
C        1.28140000      -1.61540000       0.21280000
C        1.06520000      -3.07720000      -0.06440000
C        2.61230000      -1.09850000       0.79340000
O        1.90870000      -0.22850000       1.71870000
C        0.62630000      -0.71150000       1.28360000
H        1.36130000       1.76360000       0.22620000
H        0.13260000       1.88270000      -1.05810000
H       -0.32960000       2.12040000       0.63760000
H       -1.03490000      -0.13670000      -0.03320000
H        1.64410000      -3.38090000      -0.94390000
H        1.38440000      -3.69040000       0.78380000
H        0.01080000      -3.28160000      -0.27050000
H        3.21190000      -1.84300000       1.33310000
H        3.24070000      -0.54770000       0.08590000
H       -0.02100000      -1.01000000       2.11080000
