15
Properties=species:S:1:pos:R:3 gdb_34774=T pbc="F F F"
C       -0.21140000      -1.23080000      -0.27960000
C       -0.08940000      -0.04960000      -0.09830000
C        0.04210000       1.38550000       0.07880000
N       -0.10230000       1.92260000       1.48580000
C        1.10560000       2.73510000       1.28550000
C        2.29570000       1.81240000       1.18490000
C        2.39470000       0.56630000       1.89970000
N        2.53130000      -0.41670000       2.49240000
C        1.41990000       2.06620000      -0.03560000
H       -0.29850000      -2.28100000      -0.41300000
H       -0.64450000       1.90340000      -0.60110000
H       -0.93900000       2.48810000       1.57470000
H        1.19060000       3.76200000       1.61870000
H        3.24440000       2.33700000       1.10790000
H        1.85330000       2.43130000      -0.95690000
