18
Properties=species:S:1:pos:R:3 gdb_86170=T pbc="F F F"
C       -0.12750000       1.57910000      -0.01410000
C        0.11520000       0.07450000       0.01580000
C        0.90770000      -0.47680000      -1.20230000
N        1.78460000      -1.46950000      -0.57470000
C        2.94390000      -1.96930000      -1.28510000
C        1.77650000      -1.15990000       0.77450000
N        0.89790000      -0.33220000       1.20370000
C        2.71350000      -1.80720000       1.65630000
N        3.48260000      -2.33590000       2.33790000
H        0.82180000       2.12160000      -0.06730000
H       -0.73360000       1.85710000      -0.88270000
H       -0.65160000       1.89700000       0.89050000
H       -0.85350000      -0.43990000       0.08700000
H        0.27210000      -0.93470000      -1.96530000
H        1.50930000       0.31170000      -1.68470000
H        3.60450000      -1.15640000      -1.62490000
H        3.51610000      -2.63530000      -0.63600000
H        2.62290000      -2.53930000      -2.16210000
