18
Properties=species:S:1:pos:R:3 gdb_63254=T pbc="F F F"
C       -0.11800000       1.58710000      -0.00180000
C       -0.00210000       0.05820000      -0.02730000
C       -1.39540000      -0.59000000       0.03350000
C        0.80510000      -0.45290000      -1.25040000
C        1.83160000      -1.43310000      -0.69790000
O        2.53350000      -2.18600000      -1.31240000
C        1.82300000      -1.28840000       0.84160000
O        2.55230000      -1.84140000       1.63060000
N        0.81970000      -0.40220000       1.10270000
H        0.87180000       2.05200000      -0.01600000
H       -0.68250000       1.94360000      -0.86890000
H       -0.64170000       1.92460000       0.89940000
H       -2.01310000      -0.25800000      -0.80690000
H       -1.31980000      -1.68100000      -0.00220000
H       -1.91110000      -0.31580000       0.95990000
H        0.18070000      -0.92530000      -2.01180000
H        1.34780000       0.36590000      -1.73610000
H        0.57550000      -0.17800000       2.05650000
