10
Properties=species:S:1:pos:R:3 gdb_1012=T pbc="F F F"
N        0.10560000      -1.12690000      -0.00470000
C        0.02460000       0.02880000       0.00270000
C       -0.10270000       1.43400000       0.01190000
C       -1.19770000       2.25330000       0.03150000
C       -0.69450000       3.58610000       0.03140000
C        0.66310000       3.47500000       0.01230000
O        1.04350000       2.17860000       0.00020000
H       -2.22720000       1.93340000       0.04400000
H       -1.26530000       4.50050000       0.04400000
H        1.46530000       4.19460000       0.00510000
