16
Properties=species:S:1:pos:R:3 gdb_108176=T pbc="F F F"
O        0.04330000       1.39810000      -0.44960000
C        0.00860000       0.11640000       0.15250000
C       -1.35020000      -0.51540000       0.10510000
O       -2.29230000       0.12110000       0.96600000
C       -3.12630000      -0.85860000       1.39320000
N       -2.89440000      -2.06000000       1.04340000
C       -1.76020000      -1.99620000       0.15380000
C       -1.96090000      -1.16340000      -1.10590000
O       -3.22490000      -0.76380000      -1.51420000
H       -0.60370000       1.94770000       0.00580000
H        0.71150000      -0.50740000      -0.40860000
H        0.35360000       0.15010000       1.19750000
H       -3.93470000      -0.52340000       2.03070000
H       -1.08150000      -2.84120000       0.15350000
H       -1.25190000      -1.37320000      -1.90650000
H       -3.79520000      -1.54070000      -1.53450000
