17
Properties=species:S:1:pos:R:3 gdb_68202=T pbc="F F F"
O       -0.11230000       1.41510000      -0.03650000
C       -0.00800000       0.03270000       0.01490000
C        0.29650000      -0.79680000       1.29930000
N       -0.42330000      -1.92440000       0.58160000
C       -1.28560000      -0.83080000      -0.02580000
C        0.51700000      -2.15120000      -0.57340000
C        0.87710000      -0.69130000      -1.02440000
C        1.67270000      -2.95300000      -0.17620000
N        2.60340000      -3.56980000       0.12160000
H        0.76940000       1.79640000      -0.10820000
H        1.33020000      -1.01230000       1.58260000
H       -0.28520000      -0.47990000       2.16600000
H       -2.04540000      -0.51990000       0.69240000
H       -1.74110000      -1.07180000      -0.99070000
H       -0.02230000      -2.69620000      -1.35260000
H        0.57420000      -0.48060000      -2.05240000
H        1.93960000      -0.45990000      -0.91270000
