21
Properties=species:S:1:pos:R:3 gdb_55850=T pbc="F F F"
C        0.08660000       0.69170000       1.01560000
C        0.14330000      -0.05720000      -0.30340000
O        1.12830000      -0.05180000      -1.00420000
C       -1.10350000      -0.85100000      -0.69820000
C       -1.05070000      -2.24640000      -0.09400000
C       -1.63280000      -2.56710000       1.27520000
C       -2.24720000      -3.14750000       0.02070000
C       -3.62810000      -2.72880000      -0.42980000
O       -1.94090000      -4.48810000      -0.27440000
H        1.06450000       1.11470000       1.24900000
H       -0.65340000       1.49850000       0.95090000
H       -0.23870000       0.02600000       1.82200000
H       -2.00550000      -0.32480000      -0.36840000
H       -1.11700000      -0.91770000      -1.79060000
H       -0.14060000      -2.78840000      -0.33480000
H       -1.07170000      -3.23780000       1.91630000
H       -2.18070000      -1.78730000       1.79640000
H       -3.83150000      -1.67710000      -0.21340000
H       -3.74620000      -2.89260000      -1.50570000
H       -4.39340000      -3.32150000       0.08670000
H       -2.52310000      -5.04630000       0.25370000
