21
Properties=species:S:1:pos:R:3 gdb_117095=T pbc="F F F"
C        0.62420000       0.80680000      -0.90220000
C       -0.03570000       0.10000000       0.28410000
C        0.80550000      -1.05730000       0.82040000
C        0.18990000      -1.75910000       2.01380000
O       -0.82280000      -1.37540000       2.55010000
C        0.86310000      -3.05240000       2.54100000
C        0.02660000      -4.26380000       2.05610000
C        2.27110000      -3.19630000       2.19130000
C        3.43040000      -3.33770000       1.90480000
H        0.78570000       0.11830000      -1.73940000
H        0.00260000       1.63080000      -1.26570000
H        1.59960000       1.22300000      -0.62620000
H       -0.21790000       0.81200000       1.09590000
H       -1.02350000      -0.27740000      -0.00320000
H        1.00200000      -1.81000000       0.04350000
H        1.80620000      -0.71750000       1.12190000
H        0.76620000      -2.99640000       3.63160000
H        0.06490000      -4.35410000       0.96660000
H        0.41820000      -5.18830000       2.48660000
H       -1.01270000      -4.13440000       2.36600000
H        4.45650000      -3.45350000       1.65690000
