21
Properties=species:S:1:pos:R:3 gdb_119992=T pbc="F F F"
C        0.49150000       1.11150000       0.43100000
O       -0.20610000       0.03630000      -0.18210000
C        0.49220000      -0.50020000      -1.27160000
C        1.29340000      -1.74660000      -0.97440000
O        1.29800000      -2.20630000       0.34530000
C        0.01400000      -1.83430000      -1.79470000
C       -1.21900000      -2.52270000      -1.24670000
C       -1.11570000      -4.04720000      -1.35690000
O       -2.30000000      -4.70750000      -0.93590000
H        1.47760000       0.79900000       0.80010000
H        0.62890000       1.94450000      -0.27280000
H       -0.11980000       1.45180000       1.26970000
H        0.86010000       0.24640000      -1.97490000
H        2.24980000      -1.91410000      -1.45950000
H        0.69650000      -1.62860000       0.83410000
H        0.16450000      -1.96700000      -2.86410000
H       -1.36890000      -2.24800000      -0.19760000
H       -2.11140000      -2.18460000      -1.78570000
H       -0.97250000      -4.33960000      -2.40340000
H       -0.23580000      -4.39330000      -0.79530000
H       -2.40450000      -4.54400000       0.00670000
