17
Properties=species:S:1:pos:R:3 gdb_45888=T pbc="F F F"
O        0.08970000      -0.04150000       0.32260000
C        0.02850000       1.15750000       0.13730000
N       -1.19880000       1.79520000       0.10180000
C       -1.51100000       3.15140000      -0.05430000
C       -0.74200000       4.16550000       0.34600000
C        0.54810000       3.93090000       1.08020000
N        1.55620000       3.32380000       0.20360000
C        2.32810000       2.22320000       0.78270000
C        1.26450000       1.95800000      -0.22210000
H       -1.96700000       1.14260000       0.18630000
H       -2.46940000       3.32180000      -0.53510000
H       -1.06320000       5.17750000       0.13160000
H        0.95820000       4.86770000       1.46730000
H        0.33910000       3.28170000       1.95180000
H        3.37310000       2.16740000       0.49380000
H        2.12090000       1.94060000       1.81320000
H        1.57020000       1.73350000      -1.24310000
