15
Properties=species:S:1:pos:R:3 gdb_6651=T pbc="F F F"
C       -0.07810000       1.47200000      -0.02540000
C        0.07730000      -0.03760000       0.00860000
O        1.14480000      -0.59220000       0.00160000
C       -1.23990000      -0.81480000       0.04800000
O       -0.98520000      -2.19170000      -0.02330000
C       -2.16280000      -2.95720000       0.03060000
C       -1.82020000      -4.38000000      -0.05270000
N       -1.59330000      -5.50990000      -0.11630000
H        0.89570000       1.94050000       0.11920000
H       -0.48410000       1.78240000      -0.99540000
H       -0.77760000       1.81970000       0.74240000
H       -1.77190000      -0.54790000       0.97910000
H       -1.88130000      -0.47500000      -0.78480000
H       -2.71750000      -2.78500000       0.96790000
H       -2.84600000      -2.71320000      -0.79970000
