19
Properties=species:S:1:pos:R:3 gdb_88019=T pbc="F F F"
O       -0.08840000       1.34500000      -0.12810000
C       -0.05090000      -0.03980000       0.05390000
C       -0.61130000      -0.64570000       1.32330000
C       -1.37090000      -0.72880000       0.02900000
C       -2.71130000      -0.10460000      -0.33870000
O       -3.05450000      -1.27190000      -1.13070000
C       -1.82940000      -1.91850000      -0.77750000
C       -1.09930000      -2.80760000      -1.72680000
C       -1.76640000      -3.38000000      -0.48000000
H        0.59380000       1.73900000       0.42570000
H        0.79300000      -0.54740000      -0.41600000
H       -0.14830000      -1.54640000       1.71570000
H       -0.99160000       0.03970000       2.07490000
H       -3.41420000       0.04240000       0.48990000
H       -2.65640000       0.80450000      -0.94580000
H       -1.57640000      -2.99990000      -2.68180000
H       -0.01550000      -2.75880000      -1.76320000
H       -1.13800000      -3.71910000       0.33790000
H       -2.67960000      -3.94890000      -0.61790000
