16
Properties=species:S:1:pos:R:3 gdb_55616=T pbc="F F F"
C        0.00160000       1.51430000      -0.02730000
C        0.15650000       0.00500000       0.03840000
O        0.60310000      -0.56770000       1.01450000
N       -0.26500000      -0.66760000      -1.07850000
C       -0.22330000      -2.12530000      -1.14670000
C       -1.56990000      -2.70170000      -1.26260000
C       -2.67520000      -3.16040000      -1.35850000
C        0.64950000      -2.59120000      -2.23260000
C        1.36380000      -2.96080000      -3.12390000
H       -0.11780000       1.89440000      -1.04510000
H       -0.87570000       1.80540000       0.55890000
H        0.87700000       1.97450000       0.43400000
H       -0.63830000      -0.16850000      -1.86910000
H        0.21250000      -2.42110000      -0.18200000
H       -3.64980000      -3.57510000      -1.43740000
H        1.99880000      -3.29620000      -3.90650000
