23
Properties=species:S:1:pos:R:3 gdb_60054=T pbc="F F F"
C        0.03570000       1.58450000       0.27180000
C        0.00060000       0.09630000      -0.06480000
O        0.85410000      -0.65430000       0.81200000
C       -1.43130000      -0.46900000      -0.09620000
C       -1.45290000      -1.99390000      -0.08120000
O       -0.43800000      -2.58770000      -0.84790000
C       -1.87920000      -2.73560000       1.17090000
C       -2.74060000      -2.76340000      -0.08070000
C       -4.10220000      -2.10600000      -0.12200000
H        1.06360000       1.95620000       0.25530000
H       -0.55550000       2.16220000      -0.44640000
H       -0.38020000       1.76880000       1.27000000
H        0.44980000      -0.05930000      -1.05080000
H        0.45290000      -0.65790000       1.68840000
H       -1.99830000      -0.08010000       0.75880000
H       -1.92360000      -0.08410000      -0.99870000
H        0.38640000      -2.37340000      -0.38810000
H       -1.32950000      -3.63430000       1.42800000
H       -2.24070000      -2.16080000       2.01950000
H       -2.66950000      -3.68860000      -0.64590000
H       -4.13360000      -1.18920000       0.47450000
H       -4.38920000      -1.84490000      -1.14690000
H       -4.86910000      -2.77980000       0.27540000
