17
Properties=species:S:1:pos:R:3 gdb_13432=T pbc="F F F"
C       -0.02540000       1.57180000      -0.14330000
C        0.02220000       0.06460000      -0.01010000
C        1.32900000      -0.69300000      -0.14150000
O        2.52620000       0.02380000      -0.23300000
C        0.63680000      -0.63260000       1.19340000
C        1.25840000       0.15910000       2.33660000
C        1.98860000      -0.70690000       3.26340000
N        2.55050000      -1.40040000       3.99720000
H        0.93050000       2.03260000       0.11580000
H       -0.26020000       1.85830000      -1.17430000
H       -0.79830000       2.00640000       0.49940000
H       -0.84750000      -0.44330000      -0.41920000
H        1.32880000      -1.64460000      -0.67110000
H        2.60650000       0.36610000      -1.12950000
H        0.14280000      -1.54380000       1.51510000
H        1.95560000       0.90520000       1.94740000
H        0.48730000       0.69240000       2.90510000
