14
Properties=species:S:1:pos:R:3 gdb_132198=T pbc="F F F"
N        0.13640000       1.33730000       0.15740000
C       -0.03300000      -0.02520000       0.04850000
C       -1.18690000      -0.71800000       0.01510000
C       -1.20820000      -2.17310000      -0.00540000
N       -2.32750000      -2.81020000      -0.02730000
C        0.13090000      -2.77360000      -0.00790000
C        1.20580000      -1.98550000       0.00930000
F        2.45060000      -2.40810000      -0.00070000
O        1.19610000      -0.64070000       0.04040000
H        0.98530000       1.68770000      -0.26380000
H       -0.67910000       1.88030000      -0.08280000
H       -2.13260000      -0.19180000       0.01060000
H       -2.15970000      -3.81790000      -0.04420000
H        0.26420000      -3.84730000      -0.02970000
