11
Properties=species:S:1:pos:R:3 gdb_129309=T pbc="F F F"
N       -0.06760000       1.29100000       0.29170000
C       -0.03540000       0.07100000      -0.05150000
O        1.13000000      -0.57550000      -0.39450000
N        1.14710000      -1.98520000      -0.78820000
N        0.09620000      -2.61000000      -0.81410000
C       -1.14870000      -2.02670000      -0.47740000
C       -1.23860000      -0.73780000      -0.10700000
C       -2.27090000      -2.90500000      -0.56370000
N       -3.19000000      -3.60380000      -0.62860000
H        0.86500000       1.70730000       0.27630000
H       -2.17600000      -0.26500000       0.15580000
