19
Properties=species:S:1:pos:R:3 gdb_55749=T pbc="F F F"
N       -0.12890000       1.33390000       0.20400000
C        0.06150000      -0.03540000       0.03910000
O        1.16310000      -0.54360000      -0.04160000
N       -1.11590000      -0.75760000      -0.00030000
C       -1.09200000      -2.18600000       0.01700000
C       -0.52810000      -3.15230000       1.11070000
C       -1.13040000      -4.05370000      -0.00370000
C       -2.35170000      -3.08550000      -0.04130000
C       -0.44790000      -3.12060000      -1.04550000
H        0.71190000       1.85860000       0.01380000
H       -0.95870000       1.73810000      -0.20460000
H       -1.94050000      -0.32080000       0.38280000
H        0.55630000      -3.16110000       1.22710000
H       -1.04660000      -3.15360000       2.07420000
H       -1.16390000      -5.14090000      -0.01850000
H       -3.00040000      -3.08070000       0.84060000
H       -2.93030000      -3.05820000      -0.96930000
H       -0.89290000      -3.09450000      -2.04440000
H        0.64170000      -3.12320000      -1.08010000
