23
Properties=species:S:1:pos:R:3 gdb_95211=T pbc="F F F"
C       -0.84660000       1.23050000      -0.04540000
C       -0.25960000      -0.18370000       0.08620000
C        0.30920000      -0.66490000      -1.25390000
O        1.40830000       0.13940000      -1.66550000
C        2.50530000       0.07460000      -0.79900000
C        2.72110000       1.24000000       0.13130000
C        2.24900000      -0.09450000       0.67580000
C        0.83580000      -0.38140000       1.17720000
C        0.54000000       0.32960000       2.50300000
H       -0.11020000       1.94880000      -0.41190000
H       -1.67380000       1.22290000      -0.76360000
H       -1.24190000       1.59740000       0.90530000
H       -1.08760000      -0.85580000       0.35010000
H        0.61170000      -1.72210000      -1.18190000
H       -0.43440000      -0.57820000      -2.05220000
H        3.37120000      -0.40970000      -1.24720000
H        3.73790000       1.54540000       0.35490000
H        2.01430000       2.05700000       0.05350000
H        3.01090000      -0.64860000       1.21820000
H        0.82630000      -1.46130000       1.38460000
H        0.59590000       1.41730000       2.39860000
H       -0.45780000       0.07510000       2.87760000
H        1.26800000       0.03560000       3.26660000
