17
Properties=species:S:1:pos:R:3 gdb_111903=T pbc="F F F"
C       -0.01830000       1.45890000      -0.06180000
C        0.01400000      -0.03260000      -0.07030000
N        0.05020000      -0.76770000      -1.11900000
C        0.08650000      -2.16190000      -0.66060000
C        1.32830000      -2.86880000      -1.22650000
O        1.31200000      -2.85550000      -2.63430000
C        0.06620000      -2.10800000       0.87080000
O        0.10390000      -2.99800000       1.68310000
N        0.00600000      -0.74160000       1.13290000
H        0.84050000       1.86500000       0.48400000
H        0.00290000       1.82460000      -1.08820000
H       -0.92550000       1.82500000       0.43150000
H       -0.80190000      -2.69270000      -1.02390000
H        2.23120000      -2.38320000      -0.82190000
H        1.33360000      -3.91290000      -0.90100000
H        1.14080000      -1.94060000      -2.89130000
H       -0.00480000      -0.34900000       2.06070000
