13
Properties=species:S:1:pos:R:3 gdb_4986=T pbc="F F F"
N       -0.06480000       1.39900000      -0.11340000
C       -0.03760000       0.02720000      -0.04730000
N       -1.17100000      -0.65100000       0.02970000
C       -1.08700000      -1.99450000       0.03060000
C        0.12110000      -2.65560000      -0.03310000
N        1.28440000      -1.97140000      -0.09570000
C        1.20350000      -0.66730000      -0.10420000
O        2.33350000       0.08000000      -0.15740000
H        0.77940000       1.88040000       0.15150000
H       -0.93010000       1.82270000       0.18440000
H       -2.02410000      -2.53950000       0.08950000
H        0.18560000      -3.73820000      -0.02970000
H        3.07240000      -0.54410000      -0.17590000
