20
Properties=species:S:1:pos:R:3 gdb_40526=T pbc="F F F"
C        0.22680000       1.51070000       0.07870000
N        1.27380000       0.50100000      -0.10130000
C       -0.13220000       0.06020000       0.07790000
C       -0.44990000      -0.68130000       1.30200000
C       -1.35210000      -1.64400000       1.53380000
C       -1.15250000      -1.97160000       3.02040000
C       -1.02890000      -0.52540000       3.61300000
C        0.22720000      -0.50420000       2.67400000
C        0.41410000      -2.00400000       3.08650000
H        0.27210000       2.05200000       1.01970000
H       -0.08850000       2.10890000      -0.77270000
H        1.53150000       0.43290000      -1.08220000
H       -0.65700000      -0.29060000      -0.80890000
H       -2.06120000      -2.10360000       0.85920000
H       -1.77600000      -2.74090000       3.47540000
H       -1.83600000       0.17850000       3.39470000
H       -0.77360000      -0.50930000       4.67760000
H        1.02690000       0.22890000       2.76410000
H        0.80650000      -2.12750000       4.10130000
H        0.93530000      -2.65730000       2.38330000
