16
Properties=species:S:1:pos:R:3 gdb_42700=T pbc="F F F"
O       -0.05800000      -0.01360000      -0.12530000
C       -0.02200000       1.17100000       0.03360000
C       -1.06320000       2.29600000       0.06640000
C       -0.81860000       3.03370000       1.39360000
C       -0.91570000       4.52580000       1.00920000
N        0.33440000       4.33650000       0.20480000
C        0.73830000       3.21310000       1.15700000
C        1.07130000       2.23640000       0.00550000
C        0.03180000       3.17840000      -0.70600000
H       -2.08450000       2.15280000      -0.27770000
H       -1.25390000       2.61180000       2.29960000
H       -1.79080000       4.87670000       0.45270000
H       -0.70910000       5.20020000       1.84580000
H        1.40760000       3.44050000       1.98490000
H        2.09790000       2.06710000      -0.30440000
H       -0.04920000       3.33470000      -1.77810000
