22
Properties=species:S:1:pos:R:3 gdb_118104=T pbc="F F F"
C       -0.13010000       1.42930000       0.95040000
O        0.20600000       0.05890000       0.97220000
C        1.59350000      -0.16810000       1.12370000
C        1.91050000      -1.66430000       1.00190000
O        3.32880000      -1.80780000       0.91770000
C        1.34310000      -2.59720000       2.07140000
C        1.60560000      -4.06330000       1.78640000
C        1.26050000      -2.13200000       3.48760000
N        0.03810000      -2.32320000       2.69000000
H        0.36450000       1.94890000       0.11620000
H       -1.21250000       1.49820000       0.82220000
H        0.15280000       1.93330000       1.88740000
H        2.15870000       0.34650000       0.33230000
H        1.95150000       0.23360000       2.08710000
H        1.53190000      -1.99510000       0.02680000
H        3.67560000      -1.72460000       1.81350000
H        2.67600000      -4.25700000       1.67500000
H        1.20880000      -4.68300000       2.59380000
H        1.10980000      -4.36550000       0.85680000
H        1.40370000      -2.84940000       4.29180000
H        1.56540000      -1.11920000       3.73920000
H       -0.30830000      -1.42330000       2.36520000
