15
Properties=species:S:1:pos:R:3 gdb_1308=T pbc="F F F"
C       -0.06080000       1.60880000       0.05830000
C       -0.08410000       0.08150000      -0.00600000
O       -1.39830000      -0.38500000       0.17790000
C        0.73540000      -0.49530000      -1.21740000
C        1.95750000      -0.75150000      -0.27840000
C        0.96870000      -0.60680000       0.88220000
O        0.86810000      -1.09700000       1.97280000
H        0.94180000       2.01160000      -0.11580000
H       -0.73200000       2.00850000      -0.70800000
H       -0.41140000       1.94970000       1.03630000
H       -1.39450000      -0.94200000       0.96650000
H        0.28790000      -1.42480000      -1.57280000
H        0.89380000       0.18500000      -2.05520000
H        2.47890000      -1.70820000      -0.34260000
H        2.69340000       0.05750000      -0.30530000
