21
Properties=species:S:1:pos:R:3 gdb_120097=T pbc="F F F"
C       -0.68720000       1.35510000       0.25510000
O       -0.46440000      -0.03070000       0.33200000
C        0.74570000      -0.35330000       0.99420000
C        0.84920000      -1.87450000       1.00010000
C        2.01800000      -2.79040000       0.74360000
C        3.34100000      -2.47800000       1.49610000
C        3.30730000      -1.26670000       2.38810000
C        2.60280000      -2.52310000       2.82320000
C        1.27480000      -2.83580000       2.07980000
H        0.11190000       1.86930000      -0.30320000
H       -1.63520000       1.50690000      -0.26710000
H       -0.75430000       1.81640000       1.25390000
H        1.59320000       0.10980000       0.46300000
H        0.72860000       0.05700000       2.01710000
H       -0.03270000      -2.26830000       0.49620000
H        1.99150000      -3.52130000      -0.05550000
H        4.27140000      -2.96380000       1.23220000
H        4.24280000      -1.09360000       2.91440000
H        2.79260000      -0.35090000       2.13290000
H        2.88390000      -3.04860000       3.72660000
H        0.60350000      -3.60610000       2.43980000
