16
Properties=species:S:1:pos:R:3 gdb_9230=T pbc="F F F"
C        0.24630000       1.12810000      -0.44230000
O       -0.08270000      -0.11730000       0.17120000
C       -1.39740000      -0.41050000       0.25450000
N       -1.57030000      -1.68290000       0.75700000
N       -2.28540000       0.41310000      -0.14440000
C       -3.67980000      -0.00950000      -0.09810000
C       -4.20590000      -0.27290000       1.24850000
C       -4.60240000      -0.51250000       2.35940000
H        1.33650000       1.17310000      -0.44460000
H       -0.14280000       1.17390000      -1.46280000
H       -0.17160000       1.96360000       0.12510000
H       -0.74490000      -2.06950000       1.19050000
H       -2.41700000      -1.81640000       1.29300000
H       -4.28370000       0.78230000      -0.55500000
H       -3.84160000      -0.91150000      -0.71120000
H       -4.97330000      -0.69510000       3.33780000
