19
Properties=species:S:1:pos:R:3 gdb_85830=T pbc="F F F"
C        0.03340000       1.56280000      -0.05560000
C        0.06520000       0.05240000       0.06980000
N        1.00650000      -0.66580000      -0.81460000
C        0.50980000      -1.21490000      -2.05640000
C        1.38120000      -1.59440000       0.25990000
C        0.79830000      -0.58630000       1.29600000
O        1.73170000       0.31510000       1.84030000
C       -0.05250000      -1.15920000       2.34380000
N       -0.69910000      -1.61900000       3.18480000
H        1.03310000       1.97940000       0.07370000
H       -0.34020000       1.84480000      -1.04550000
H       -0.63470000       1.99980000       0.69310000
H       -0.95470000      -0.36380000       0.00930000
H        0.18740000      -0.40430000      -2.71770000
H        1.30980000      -1.76110000      -2.56660000
H       -0.34330000      -1.90600000      -1.91590000
H        0.82390000      -2.54440000       0.25100000
H        2.45380000      -1.79820000       0.35110000
H        2.26040000      -0.14900000       2.49920000
