17
Properties=species:S:1:pos:R:3 gdb_77053=T pbc="F F F"
N        0.16420000       1.49620000       0.17510000
C        0.08740000       0.06000000       0.03460000
C       -1.30230000      -0.63400000       0.15780000
C       -2.52670000       0.27530000       0.14740000
C       -3.78170000      -0.46480000       0.12900000
C       -4.80640000      -1.09190000       0.12230000
O       -1.07720000      -1.29040000      -1.13400000
C        0.10120000      -0.60360000      -1.33960000
N        0.85350000      -0.53820000      -2.34050000
H        1.12260000       1.78270000       0.33750000
H       -0.13090000       1.95900000      -0.67860000
H        0.81380000      -0.40350000       0.70670000
H       -1.38590000      -1.38770000       0.94450000
H       -2.47050000       0.91750000       1.03500000
H       -2.47350000       0.94500000      -0.71950000
H       -5.71640000      -1.63870000       0.11090000
H        0.50500000      -1.11140000      -3.11120000
