17
Properties=species:S:1:pos:R:3 gdb_32336=T pbc="F F F"
C        0.06130000       1.57690000       0.10420000
C        0.01740000       0.04780000      -0.05670000
C       -1.38180000      -0.51270000      -0.05390000
C       -2.02650000      -0.93700000      -1.17740000
N       -3.29340000      -1.40660000      -1.09530000
C       -4.03960000      -1.49450000       0.10650000
O       -5.17410000      -1.91590000       0.07440000
N       -3.36950000      -1.07860000       1.24980000
C       -2.15030000      -0.63020000       1.14650000
H        1.09420000       1.93800000       0.11860000
H       -0.46330000       2.07200000      -0.71890000
H       -0.41760000       1.89020000       1.03750000
H        0.51860000      -0.23620000      -0.98920000
H        0.59560000      -0.41600000       0.75230000
H       -1.57650000      -0.92600000      -2.16500000
H       -3.78290000      -1.72570000      -1.91940000
H       -1.67810000      -0.32420000       2.08330000
