19
Properties=species:S:1:pos:R:3 gdb_67298=T pbc="F F F"
O       -0.13810000       1.32650000      -0.00990000
C       -0.04040000      -0.04730000      -0.00820000
C        0.86170000      -0.99300000      -0.90130000
C        2.00350000      -1.00400000       0.13680000
C        0.72330000      -1.00050000       0.99860000
C       -0.03670000      -1.92830000      -0.01540000
C       -1.23060000      -0.97910000      -0.09860000
C       -2.56300000      -0.95580000       0.57010000
C       -2.45210000      -0.94980000      -0.95290000
H        0.74600000       1.70460000       0.05650000
H        0.90820000      -1.00200000      -1.99100000
H        2.61710000      -1.90920000       0.17790000
H        2.64650000      -0.11750000       0.18720000
H        0.61160000      -1.01820000       2.08350000
H       -0.01400000      -3.01590000      -0.01800000
H       -2.92480000      -1.86190000       1.04620000
H       -2.87990000      -0.03800000       1.05490000
H       -2.69600000      -0.02800000      -1.47130000
H       -2.74060000      -1.85190000      -1.48350000
