16
Properties=species:S:1:pos:R:3 gdb_71455=T pbc="F F F"
O       -0.01880000       1.37220000      -0.03530000
C        0.06700000      -0.00400000      -0.04120000
C        0.79790000      -0.84990000      -1.07880000
C       -0.20120000      -2.02020000      -0.73950000
C       -1.10050000      -0.98920000       0.00070000
C       -0.22510000      -0.83400000       1.19950000
O        0.52130000      -2.01370000       1.47020000
C        0.41750000      -2.83520000       0.36740000
N        0.82700000      -4.02570000       0.30490000
H        0.74270000       1.72670000       0.43800000
H        0.60610000      -0.46840000      -2.08380000
H        1.86780000      -1.04320000      -0.95000000
H       -0.58950000      -2.60520000      -1.56660000
H       -2.17330000      -0.86410000      -0.04670000
H       -0.56020000      -0.32560000       2.09380000
H        1.23750000      -4.31240000       1.19550000
