25
Properties=species:S:1:pos:R:3 gdb_100134=T pbc="F F F"
C       -0.13560000       1.48630000       0.22480000
C        0.03430000      -0.01260000      -0.04950000
C        0.77230000      -0.41820000      -1.35450000
C        0.01200000       0.11660000      -2.58270000
C        2.20790000       0.14000000      -1.34820000
C        0.79510000      -1.96870000      -1.36570000
C        1.48170000      -2.64530000      -2.57290000
C        1.44380000      -4.10020000      -2.47810000
C        1.39850000      -5.29710000      -2.37520000
H        0.82540000       2.00250000       0.31020000
H       -0.71590000       1.98640000      -0.55650000
H       -0.66840000       1.63540000       1.16930000
H        0.56850000      -0.46530000       0.79630000
H       -0.95860000      -0.48140000      -0.06230000
H       -0.04500000       1.20900000      -2.57080000
H        0.50450000      -0.16360000      -3.51910000
H       -1.01260000      -0.27120000      -2.61410000
H        2.77340000      -0.23110000      -0.48580000
H        2.75640000      -0.13940000      -2.25320000
H        2.20960000       1.23300000      -1.30300000
H        1.29110000      -2.32120000      -0.45340000
H       -0.23630000      -2.33740000      -1.31290000
H        0.99850000      -2.33700000      -3.50770000
H        2.52640000      -2.32080000      -2.64780000
H        1.36490000      -6.35520000      -2.29640000
