18
Properties=species:S:1:pos:R:3 gdb_14938=T pbc="F F F"
O       -0.15190000      -0.00490000      -0.02660000
C       -0.02900000       1.19200000       0.00900000
C        1.28370000       1.94180000       0.00150000
C        1.38070000       2.82350000      -1.26180000
C        2.72790000       3.55700000      -1.31820000
C        3.10050000       4.16340000       0.00890000
C        2.50110000       3.84340000       1.15420000
C        1.40710000       2.81380000       1.26860000
H       -0.92600000       1.85850000       0.04520000
H        2.08590000       1.19610000      -0.01300000
H        1.24270000       2.21360000      -2.16070000
H        0.56590000       3.55910000      -1.24610000
H        3.51940000       2.86640000      -1.64420000
H        2.68960000       4.33920000      -2.08660000
H        3.90100000       4.89910000       0.00700000
H        2.80180000       4.33160000       2.07820000
H        0.44770000       3.31540000       1.47320000
H        1.59010000       2.17140000       2.13880000
