19
Properties=species:S:1:pos:R:3 gdb_93568=T pbc="F F F"
C        0.13930000       1.55720000      -0.06690000
C       -0.02600000       0.04120000       0.05430000
O        0.54910000      -0.60770000      -1.08760000
C        1.46670000      -1.61740000      -0.68370000
C        1.53680000      -1.51110000       0.82260000
C        0.67710000      -0.57330000       1.22690000
C        2.39850000      -2.31780000       1.72740000
C        3.29950000      -3.34980000       1.07550000
O        2.37830000      -2.15360000       2.93050000
H        1.19860000       1.82920000      -0.07040000
H       -0.31350000       1.90490000      -0.99930000
H       -0.35340000       2.06630000       0.76790000
H       -1.10500000      -0.19070000       0.09170000
H        1.11070000      -2.60690000      -1.01440000
H        2.43800000      -1.44700000      -1.17180000
H        0.50400000      -0.29130000       2.25750000
H        3.98740000      -2.86680000       0.37150000
H        3.86890000      -3.87700000       1.84120000
H        2.70590000      -4.06720000       0.49670000
