23
Properties=species:S:1:pos:R:3 gdb_111235=T pbc="F F F"
C       -0.05230000       1.56900000       0.02320000
C       -0.03900000       0.04110000      -0.10070000
C       -1.42950000      -0.57910000       0.02330000
C       -1.48910000      -2.13970000       0.05010000
C       -1.34990000      -2.05580000       1.60020000
C       -2.03940000      -0.67170000       1.45590000
O       -3.45490000      -0.78140000       1.35970000
C       -3.89500000      -2.00510000       0.77160000
C       -2.92660000      -2.55890000      -0.30010000
H        0.95430000       1.98470000      -0.08580000
H       -0.68570000       2.02060000      -0.74810000
H       -0.44050000       1.88960000       0.99570000
H        0.38310000      -0.24110000      -1.07460000
H        0.63950000      -0.37990000       0.65150000
H       -2.10720000      -0.10550000      -0.69680000
H       -0.73930000      -2.69580000      -0.51980000
H       -1.83360000      -2.81460000       2.21960000
H       -0.31190000      -1.95170000       1.91980000
H       -1.83710000       0.11570000       2.18580000
H       -4.02550000      -2.75810000       1.56190000
H       -4.88580000      -1.80570000       0.35340000
H       -3.18170000      -2.18060000      -1.29680000
H       -3.02710000      -3.65020000      -0.33220000
