20
Properties=species:S:1:pos:R:3 gdb_126153=T pbc="F F F"
C       -0.10430000       1.52960000      -0.08540000
C       -0.11740000       0.00500000       0.05920000
C        0.72050000      -0.52580000       1.24510000
C        0.17610000      -0.07380000       2.61180000
C        0.82120000      -2.02560000       1.18370000
N        1.98630000      -2.59780000       0.98660000
O        1.74540000      -3.97210000       0.97420000
C        0.43630000      -4.17910000       1.16560000
C       -0.21730000      -3.00040000       1.30710000
H        0.91980000       1.90780000      -0.17890000
H       -0.65390000       1.83680000      -0.98040000
H       -0.56750000       2.02990000       0.77040000
H       -1.15220000      -0.34770000       0.16290000
H        0.26850000      -0.44660000      -0.86190000
H        1.74330000      -0.14630000       1.13490000
H        0.78430000      -0.47780000       3.42600000
H        0.18300000       1.01590000       2.69690000
H       -0.85460000      -0.41540000       2.76000000
H        0.11990000      -5.21090000       1.17720000
H       -1.26970000      -2.84270000       1.47350000
