19
Properties=species:S:1:pos:R:3 gdb_88042=T pbc="F F F"
C       -0.10050000       1.29990000      -0.31420000
N        0.25970000      -0.09750000      -0.11630000
C        1.67350000      -0.42410000       0.05780000
C        0.71000000      -0.50800000       1.18550000
C        0.77330000       0.27070000       2.50850000
C        0.64370000      -1.08510000       3.25940000
C        0.23960000      -1.79090000       1.91640000
C       -1.18620000      -2.05470000       1.78990000
N       -2.32310000      -2.24860000       1.70630000
H        0.53780000       2.00640000       0.24050000
H       -0.02720000       1.53660000      -1.37950000
H       -1.13830000       1.45060000      -0.00250000
H        2.02050000      -1.31890000      -0.45370000
H        2.39290000       0.39490000       0.08950000
H        1.67230000       0.85880000       2.70300000
H       -0.10260000       0.90970000       2.65660000
H        1.60020000      -1.46110000       3.62610000
H       -0.09320000      -1.13530000       4.06050000
H        0.79630000      -2.69960000       1.67370000
