13
Properties=species:S:1:pos:R:3 gdb_33637=T pbc="F F F"
N       -0.16810000      -1.24460000       0.01550000
C       -0.13700000      -0.08770000       0.03110000
C       -0.09640000       1.32690000       0.05930000
C       -0.90760000       2.38270000       0.75040000
C        0.06670000       3.00110000       1.78630000
N        1.35530000       3.11290000       1.01010000
C        1.11220000       2.36940000       0.02410000
O        0.77360000       2.87210000      -1.23680000
C       -0.57750000       2.39670000      -0.82100000
H       -1.95430000       2.21310000       0.99010000
H       -0.18480000       4.02900000       2.06050000
H        0.11730000       2.39390000       2.70020000
H       -1.32770000       2.41030000      -1.60160000
