18
Properties=species:S:1:pos:R:3 gdb_55834=T pbc="F F F"
C        0.06590000       1.51060000       0.00560000
C        0.23720000       0.00480000       0.02400000
O        0.59050000      -0.59020000       1.01850000
C       -0.05030000      -0.73150000      -1.28140000
C       -0.07740000      -2.24500000      -1.11320000
C       -0.01800000      -3.11170000      -2.40670000
C        1.30880000      -3.67420000      -1.82870000
O        2.11750000      -4.49730000      -2.16180000
N        1.20400000      -2.84750000      -0.73710000
H        0.61820000       1.95420000      -0.82990000
H       -0.99070000       1.76180000      -0.14490000
H        0.40870000       1.93710000       0.94870000
H       -0.99930000      -0.37120000      -1.69950000
H        0.72700000      -0.44390000      -2.00370000
H       -0.89000000      -2.52880000      -0.43550000
H       -0.80980000      -3.85440000      -2.51580000
H        0.09640000      -2.55660000      -3.34020000
H        1.73000000      -2.76270000       0.11950000
