18
Properties=species:S:1:pos:R:3 gdb_43384=T pbc="F F F"
O        0.06510000       0.02440000       0.00240000
C        0.02030000       1.23850000      -0.11150000
C       -1.25020000       2.02300000      -0.09000000
C       -1.28050000       3.29160000       0.33060000
C       -0.02280000       4.03500000       0.72940000
C        1.16200000       3.49280000      -0.06830000
C        2.57040000       3.34270000       0.58270000
C        2.48090000       1.81220000       0.29490000
N        1.12470000       2.02940000      -0.21650000
H       -2.15070000       1.46670000      -0.32480000
H       -2.23000000       3.80960000       0.43990000
H       -0.13750000       5.11070000       0.56100000
H        0.14280000       3.90700000       1.80970000
H        1.19450000       3.98790000      -1.04820000
H        3.38020000       3.87450000       0.08230000
H        2.58290000       3.58800000       1.64670000
H        3.18020000       1.43880000      -0.46030000
H        2.51540000       1.14810000       1.16340000
