17
Properties=species:S:1:pos:R:3 gdb_71505=T pbc="F F F"
C        0.02710000       1.49560000      -0.07960000
C       -0.00350000      -0.00090000      -0.01440000
N        0.64130000      -0.89890000      -1.04620000
C        0.01880000      -1.84740000      -0.05700000
C        0.55710000      -0.95290000       1.08360000
O       -0.33010000      -0.98530000       2.20060000
C       -1.57770000      -0.99020000       1.59960000
N       -2.69260000      -1.01130000       2.18420000
C       -1.25840000      -0.95730000       0.13820000
H        1.05800000       1.84940000      -0.17710000
H       -0.54560000       1.86660000      -0.93600000
H       -0.40550000       1.92560000       0.82920000
H        0.07680000      -0.88820000      -1.90010000
H        0.07230000      -2.93110000      -0.15910000
H        1.60020000      -0.94870000       1.38710000
H       -2.56790000      -1.02660000       3.19860000
H       -2.06800000      -0.95200000      -0.58790000
