16
Properties=species:S:1:pos:R:3 gdb_81205=T pbc="F F F"
C       -0.06480000       1.55880000       0.01410000
C        0.15850000       0.06500000      -0.06710000
N        1.43660000      -0.46140000      -0.76080000
C        2.19670000      -0.13420000       0.56360000
C        0.84670000      -0.78530000       1.01540000
O       -0.01710000      -1.65870000       1.85410000
C       -0.15750000      -2.49630000       0.72300000
O       -0.90130000      -3.40620000       0.59980000
C        1.09010000      -1.83450000       0.01490000
H       -0.16390000       1.97330000      -0.99430000
H       -0.99990000       1.75310000       0.54880000
H        0.72930000       2.10380000       0.52810000
H       -0.71960000      -0.42020000      -0.50730000
H        3.10630000      -0.71760000       0.70250000
H        2.36430000       0.93140000       0.70890000
H        1.96850000      -2.47590000       0.08590000
