17
Properties=species:S:1:pos:R:3 gdb_1664=T pbc="F F F"
C       -0.05340000       1.46400000      -0.01710000
N        0.08900000       0.01830000       0.03590000
C        0.68620000      -0.61940000      -1.03940000
O        1.20990000       0.00820000      -1.94840000
N        0.68380000      -2.00030000      -0.98420000
C        1.13590000      -2.74220000      -2.14610000
C        0.14990000      -2.75680000       0.12830000
H        0.89600000       1.90050000      -0.32780000
H       -0.82180000       1.79430000      -0.72900000
H       -0.31040000       1.83260000       0.97940000
H       -0.64020000      -0.47500000       0.52380000
H        1.93280000      -3.44520000      -1.87260000
H        0.31600000      -3.31540000      -2.60090000
H        1.52130000      -2.02810000      -2.87200000
H       -0.93670000      -2.92750000       0.05890000
H        0.63260000      -3.73820000       0.15730000
H        0.36810000      -2.25790000       1.07640000
