20
Properties=species:S:1:pos:R:3 gdb_72130=T pbc="F F F"
C        0.03230000       1.53600000      -0.03640000
C       -0.05310000       0.03740000      -0.08570000
C        0.38040000      -0.81630000      -1.28240000
C       -0.33850000      -1.95410000      -0.51560000
C        0.58470000      -2.06550000       0.70530000
N        0.37190000      -0.68190000       1.24870000
C       -1.10460000      -0.78080000       1.58530000
C       -1.32910000      -0.83930000       0.07870000
O       -2.50840000      -0.53980000      -0.59230000
H        1.07970000       1.85610000      -0.02760000
H       -0.45540000       1.97610000      -0.91210000
H       -0.44510000       1.94340000       0.85960000
H       -0.17000000      -0.49620000      -2.17080000
H        1.44250000      -0.93790000      -1.51710000
H       -0.70610000      -2.85130000      -1.01470000
H        0.29540000      -2.81220000       1.44900000
H        1.63350000      -2.22840000       0.44070000
H       -1.37190000      -1.61870000       2.23700000
H       -1.46290000       0.15500000       2.02100000
H       -3.06350000      -1.32680000      -0.61180000
