18
Properties=species:S:1:pos:R:3 gdb_65692=T pbc="F F F"
C        0.01020000       1.54440000      -0.42250000
C       -0.00970000       0.07990000      -0.06090000
C        1.22180000      -0.75400000      -0.15200000
C        0.63770000      -0.43840000       1.22590000
C        1.30810000       0.44330000       2.13300000
C        1.86490000       1.18660000       2.89810000
O       -1.17810000      -0.60170000      -0.47130000
C       -2.29640000      -0.38480000       0.26050000
N       -3.39630000      -0.86690000      -0.12410000
H        0.94540000       2.00710000      -0.10140000
H       -0.09170000       1.66100000      -1.50560000
H       -0.81280000       2.08270000       0.05890000
H        1.10600000      -1.77190000      -0.50410000
H        2.14790000      -0.26350000      -0.42670000
H        0.10860000      -1.26600000       1.68940000
H        2.35810000       1.83830000       3.57580000
H       -2.11680000       0.20380000       1.16880000
H       -4.12840000      -0.63420000       0.54390000
