19
Properties=species:S:1:pos:R:3 gdb_128806=T pbc="F F F"
C        0.35540000       1.36350000      -0.06580000
O        0.35870000      -0.04160000      -0.12610000
C        0.49670000      -0.63820000       1.14930000
C        0.41650000      -2.12380000       1.00160000
N        1.23790000      -2.91650000       1.68930000
N        0.87130000      -4.17020000       1.35770000
C        1.60190000      -5.29610000       1.89580000
C       -0.15120000      -4.18570000       0.46610000
C       -0.48120000      -2.87280000       0.20990000
H        1.29730000       1.75890000       0.34720000
H        0.23530000       1.73460000      -1.08660000
H       -0.47350000       1.74580000       0.55220000
H        1.45640000      -0.37030000       1.61770000
H       -0.30330000      -0.27120000       1.81750000
H        1.06040000      -6.21480000       1.66360000
H        2.60660000      -5.35250000       1.46500000
H        1.69010000      -5.19270000       2.97960000
H       -0.55250000      -5.11420000       0.09070000
H       -1.24590000      -2.50120000      -0.45120000
