17
Properties=species:S:1:pos:R:3 gdb_42315=T pbc="F F F"
O       -0.01830000      -0.12690000      -0.04190000
C       -0.04890000       1.08460000      -0.01720000
C        1.16460000       1.86560000       0.16850000
C        2.15390000       2.53450000       0.32130000
C       -1.32150000       1.90680000      -0.13220000
C       -2.57560000       1.09920000      -0.53800000
C       -3.57290000       1.37590000       0.60730000
O       -3.13510000       2.58320000       1.21970000
C       -1.72740000       2.51650000       1.24860000
H        3.03900000       3.10760000       0.45720000
H       -1.13000000       2.72770000      -0.82930000
H       -2.96300000       1.45410000      -1.49520000
H       -2.33940000       0.03800000      -0.63200000
H       -4.60200000       1.52550000       0.27310000
H       -3.56010000       0.55240000       1.33830000
H       -1.38100000       1.86370000       2.06740000
H       -1.33440000       3.52140000       1.41340000
