16
Properties=species:S:1:pos:R:3 gdb_17947=T pbc="F F F"
C       -0.01180000       1.54830000      -0.03270000
C       -0.01690000       0.05100000      -0.00670000
C        0.49440000      -1.05080000      -0.90990000
O        1.13690000      -1.77510000       0.13890000
C        0.47350000      -0.90920000       1.11280000
C       -0.78100000      -1.63790000       1.56610000
O       -1.53310000      -1.81330000       0.35710000
C       -0.99150000      -0.92890000      -0.59550000
H        0.99070000       1.95140000       0.14960000
H       -0.34800000       1.92140000      -1.00530000
H       -0.68550000       1.96220000       0.72700000
H        0.95140000      -1.05440000      -1.89370000
H        1.15140000      -0.55060000       1.88910000
H       -0.55660000      -2.62290000       1.98550000
H       -1.35390000      -1.04920000       2.30060000
H       -1.68820000      -0.64170000      -1.37480000
