23
Properties=species:S:1:pos:R:3 gdb_106159=T pbc="F F F"
C        0.06840000       1.56810000       0.03280000
C        0.00110000       0.03540000       0.01790000
C       -1.40180000      -0.50580000       0.01070000
C       -2.51000000      -0.25070000      -1.08870000
C       -2.62390000      -1.78070000      -1.29710000
C       -1.80750000      -2.03090000      -0.00500000
C       -2.62700000      -1.80650000       1.29000000
C       -2.51260000      -0.27260000       1.11250000
C       -3.45300000       0.28630000       0.01620000
H        1.10520000       1.91800000       0.03780000
H       -0.42320000       1.99460000      -0.84810000
H       -0.42580000       1.97740000       0.92040000
H        0.53870000      -0.34520000      -0.86210000
H        0.53620000      -0.36220000       0.89190000
H       -2.36890000       0.36970000      -1.97590000
H       -3.62920000      -2.21280000      -1.35630000
H       -2.06020000      -2.09640000      -2.18060000
H       -1.09010000      -2.85380000      -0.01230000
H       -3.63240000      -2.23970000       1.33810000
H       -2.06540000      -2.13980000       2.16840000
H       -2.37350000       0.32990000       2.01210000
H       -3.45500000       1.38070000       0.02720000
H       -4.49190000      -0.06280000       0.01150000
