13
Properties=species:S:1:pos:R:3 gdb_8969=T pbc="F F F"
O        0.08510000       0.13720000      -0.88340000
C        0.03810000       1.18850000      -0.27090000
N        1.10920000       1.75120000       0.36210000
C        2.43810000       1.15940000       0.28550000
C        3.45920000       2.14280000      -0.06000000
C        4.29630000       2.96460000      -0.31840000
C       -1.18510000       1.96830000      -0.13750000
C       -2.21050000       2.58860000      -0.04390000
H        0.99900000       2.64680000       0.80980000
H        2.69870000       0.67400000       1.23630000
H        2.37750000       0.36840000      -0.46870000
H        5.04140000       3.68090000      -0.56230000
H       -3.12370000       3.12720000       0.03030000
