18
Properties=species:S:1:pos:R:3 gdb_38648=T pbc="F F F"
C        0.03600000       1.36000000       0.42650000
C        1.50100000       1.56280000      -0.05330000
C        2.56540000       1.15840000       0.99420000
C        2.44390000      -0.33420000       0.53920000
N        1.92720000      -1.25410000       1.53280000
C        0.70370000      -1.57280000       1.49960000
O       -0.28320000      -1.15300000       0.67100000
C        0.02420000      -0.06540000      -0.20140000
C        1.49660000       0.09430000      -0.61930000
H       -0.10700000       1.38200000       1.51030000
H       -0.69240000       2.03200000      -0.03250000
H        1.69620000       2.44110000      -0.66730000
H        3.55440000       1.57300000       0.78470000
H        2.31750000       1.35220000       2.04130000
H        3.39450000      -0.73800000       0.18240000
H        0.30030000      -2.29340000       2.20930000
H       -0.67460000      -0.16470000      -1.03290000
H        1.77940000      -0.19140000      -1.63180000
