19
Properties=species:S:1:pos:R:3 gdb_106396=T pbc="F F F"
O        0.06610000       1.37770000      -0.13540000
C        0.02630000      -0.02540000       0.03680000
C       -1.38650000      -0.53880000       0.11520000
C       -2.49650000       0.07750000       1.01760000
C       -3.32120000      -0.46290000      -0.17720000
O       -2.19490000      -0.12740000      -1.04470000
C       -3.18550000      -1.99450000      -0.01780000
C       -2.29430000      -2.69340000      -1.01220000
C       -1.68450000      -2.05380000       0.21010000
H       -0.55960000       1.57460000      -0.84320000
H        0.54790000      -0.55090000      -0.78000000
H        0.55640000      -0.25410000       0.96800000
H       -2.66210000      -0.35560000       2.00740000
H       -2.44560000       1.16650000       1.04860000
H       -4.27070000      -0.03790000      -0.50180000
H       -3.90100000      -2.54120000       0.58390000
H       -2.33730000      -3.77760000      -1.00760000
H       -2.12990000      -2.24150000      -1.98210000
H       -1.22300000      -2.64590000       0.99080000
