16
Properties=species:S:1:pos:R:3 gdb_102071=T pbc="F F F"
C       -0.71710000       0.96150000       0.38830000
O        0.25380000      -0.08210000       0.43370000
C        0.79560000      -0.46860000      -0.80850000
C        2.29320000      -0.72930000      -0.60680000
O        2.96820000      -1.33110000      -1.39600000
C        0.11080000      -1.75780000      -1.32410000
O        0.01690000      -2.70090000      -0.28610000
C       -1.21460000      -1.45740000      -1.91050000
N       -2.25230000      -1.20740000      -2.35390000
H       -0.28910000       1.87200000      -0.05110000
H       -1.60500000       0.66980000      -0.18250000
H       -1.00180000       1.16450000       1.42230000
H        0.70440000       0.33220000      -1.55810000
H        2.69640000      -0.28920000       0.32920000
H        0.75070000      -2.18430000      -2.10350000
H       -0.28300000      -2.21240000       0.49390000
