18
Properties=species:S:1:pos:R:3 gdb_56960=T pbc="F F F"
C        0.19420000       1.49140000       0.17130000
C       -0.14530000      -0.00460000       0.00860000
C       -1.60060000      -0.19810000      -0.04070000
N       -2.74670000      -0.33760000      -0.08930000
C        0.51690000      -0.58540000      -1.23810000
C        1.91350000      -1.10560000      -1.18690000
C        0.76410000      -2.07650000      -1.44320000
C        0.44540000      -3.08280000      -0.40120000
O        0.07240000      -4.20350000      -0.63790000
H        1.27740000       1.61530000       0.24890000
H       -0.15980000       2.06380000      -0.69060000
H       -0.27250000       1.90220000       1.06950000
H        0.21840000      -0.53680000       0.89490000
H        0.22650000      -0.06800000      -2.14820000
H        2.59140000      -0.90350000      -2.00750000
H        2.39280000      -1.16910000      -0.21390000
H        0.63610000      -2.45030000      -2.45290000
H        0.60170000      -2.74270000       0.64910000
