21
Properties=species:S:1:pos:R:3 gdb_85070=T pbc="F F F"
C       -0.21070000       1.55960000       0.00970000
C       -0.02740000       0.03570000       0.05640000
C        0.63130000      -0.48870000      -1.23720000
C        1.03180000      -1.94850000      -1.12570000
O        0.71440000      -2.77960000      -1.94490000
C        1.89880000      -2.30800000       0.08250000
C        3.39000000      -2.29580000      -0.32710000
C        1.62680000      -1.41630000       1.26730000
C        0.77100000      -0.39540000       1.26290000
H        0.75780000       2.06780000      -0.05580000
H       -0.80850000       1.85650000      -0.85770000
H       -0.71950000       1.92140000       0.90910000
H       -1.03050000      -0.41250000       0.13150000
H       -0.01850000      -0.36650000      -2.10700000
H        1.54770000       0.09370000      -1.41200000
H        1.64350000      -3.34440000       0.33960000
H        3.70560000      -1.29670000      -0.64420000
H        4.01850000      -2.59070000       0.51900000
H        3.56460000      -2.99540000      -1.14890000
H        2.16760000      -1.66260000       2.17920000
H        0.61630000       0.17680000       2.17550000
