17
Properties=species:S:1:pos:R:3 gdb_33739=T pbc="F F F"
N        0.05980000      -1.13540000      -0.02030000
C        0.04110000       0.02040000      -0.02060000
C        0.00830000       1.46730000       0.00960000
C       -0.33030000       2.27400000       1.31120000
C        0.47850000       3.33560000       0.50450000
N        1.32200000       2.21870000      -0.07140000
C       -0.48110000       3.63550000      -0.66390000
C       -0.12160000       3.09730000      -2.02610000
C       -0.84610000       2.21300000      -1.04580000
H       -1.38350000       2.46300000       1.53990000
H        0.20180000       1.89560000       2.18840000
H        1.00410000       4.16390000       0.97690000
H        1.91110000       1.86380000       0.68210000
H       -1.22290000       4.41510000      -0.54420000
H       -0.72380000       3.46360000      -2.85110000
H        0.91470000       2.89340000      -2.25970000
H       -1.85950000       1.87430000      -1.21650000
