16
Properties=species:S:1:pos:R:3 gdb_125002=T pbc="F F F"
C        0.21180000       1.52530000      -0.03190000
C        0.11640000       0.03300000      -0.04190000
C        0.00420000      -0.83790000      -1.08430000
C       -0.04290000      -0.65520000      -2.57150000
O        0.87950000       0.31660000      -3.03850000
O       -0.06190000      -2.11070000      -0.64040000
N       -0.00370000      -2.11180000       0.75550000
C        0.10300000      -0.84700000       1.08100000
O        0.19120000      -0.44250000       2.35860000
H        1.03870000       1.86100000       0.60260000
H        0.37520000       1.90260000      -1.04260000
H       -0.70100000       1.98210000       0.36700000
H        0.10540000      -1.63640000      -3.04450000
H       -1.02920000      -0.29170000      -2.88010000
H        1.76120000       0.03830000      -2.76790000
H        0.16270000      -1.22920000       2.91940000
