13
Properties=species:S:1:pos:R:3 gdb_21487=T pbc="F F F"
N       -0.10020000       1.32120000       0.23150000
C        0.05790000      -0.03140000       0.06670000
N        1.22780000      -0.54610000      -0.02940000
C       -1.21320000      -0.79060000       0.04750000
N       -2.40430000      -0.17990000       0.02380000
N       -3.26510000      -1.18250000      -0.00010000
N       -2.75280000      -2.40650000       0.00840000
C       -1.44150000      -2.18160000       0.03810000
H        0.71540000       1.87980000       0.03720000
H       -0.99780000       1.72050000       0.01310000
H        1.17690000      -1.55940000      -0.10250000
H       -4.26060000      -1.02650000      -0.02240000
H       -0.74280000      -3.00220000       0.05580000
