19
Properties=species:S:1:pos:R:3 gdb_39138=T pbc="F F F"
C        0.27060000       1.43250000       0.56400000
C        1.46200000       1.59820000      -0.42040000
C        1.27190000       0.12370000      -0.84370000
C       -0.15590000       0.15970000      -0.21850000
O        1.39100000      -0.10720000      -2.24070000
C        1.88290000      -1.41800000      -2.50490000
C        2.57040000      -1.85530000      -1.23160000
O        3.50880000      -0.88780000      -0.74840000
C        2.18640000      -0.89440000      -0.19750000
H        0.60160000       1.20180000       1.58020000
H       -0.45120000       2.24930000       0.61440000
H        1.21220000       2.25530000      -1.25680000
H        2.43990000       1.87980000      -0.02410000
H       -0.49230000      -0.71260000       0.34980000
H       -0.88980000       0.38340000      -0.99660000
H        1.06710000      -2.11780000      -2.74620000
H        2.55780000      -1.35990000      -3.36560000
H        2.80460000      -2.89910000      -1.04200000
H        2.10310000      -1.13440000       0.85900000
