19
Properties=species:S:1:pos:R:3 gdb_77383=T pbc="F F F"
C        0.01740000       1.61470000       0.08210000
C        0.03620000       0.09680000      -0.01350000
C        0.74820000      -0.60940000      -1.17260000
O        0.35040000      -0.71470000      -2.48840000
C        2.21520000      -0.74810000      -0.71020000
O        2.33650000      -0.12150000       0.56390000
C        1.03050000      -0.71690000       0.88160000
C        0.81730000      -0.97480000       2.34020000
C        1.19840000      -1.75950000      -0.29240000
H        1.03650000       2.00940000       0.06920000
H       -0.53750000       2.05100000      -0.75600000
H       -0.46910000       1.95100000       1.00420000
H       -0.96610000      -0.33250000       0.09610000
H        0.65670000       0.06600000      -2.96320000
H        3.07120000      -0.80490000      -1.37030000
H        0.83430000      -0.03170000       2.89700000
H       -0.15130000      -1.45580000       2.50690000
H        1.60440000      -1.62110000       2.73850000
H        1.12050000      -2.83460000      -0.37130000
