18
Properties=species:S:1:pos:R:3 gdb_128290=T pbc="F F F"
C        0.05700000       1.33910000      -0.17140000
N       -0.07490000      -0.01750000       0.32800000
C       -1.29310000      -0.66580000       0.18990000
N       -1.33480000      -1.99120000       0.09270000
N       -2.67410000      -2.29030000       0.04460000
C       -3.10820000      -3.66010000      -0.07050000
C       -3.42770000      -1.17600000       0.09370000
O       -4.77550000      -1.29200000       0.04530000
C       -2.58770000      -0.08230000       0.18650000
H        1.08490000       1.67580000      -0.01560000
H       -0.18890000       1.44940000      -1.23990000
H       -0.59480000       2.01280000       0.39490000
H        0.69000000      -0.62750000       0.07400000
H       -2.74440000      -4.24570000       0.77930000
H       -4.19820000      -3.68110000      -0.08490000
H       -2.72430000      -4.10710000      -0.99300000
H       -5.15890000      -0.41290000       0.11590000
H       -2.86870000       0.95510000       0.25380000
