20
Properties=species:S:1:pos:R:3 gdb_12917=T pbc="F F F"
C       -0.04990000       1.54670000       0.05970000
C       -0.00560000       0.04520000       0.01540000
C       -1.26130000      -0.84610000       0.06330000
C       -0.50360000      -1.85610000       0.98130000
C        0.73710000      -0.95580000       0.91960000
C        1.18410000      -0.71690000      -0.50810000
C        1.18140000      -1.77170000      -1.59070000
O        2.29910000      -2.64590000      -1.48280000
H        0.94340000       1.96930000       0.24370000
H       -0.41360000       1.96260000      -0.88830000
H       -0.71840000       1.90210000       0.85270000
H       -2.08350000      -0.35630000       0.59170000
H       -1.64490000      -1.21740000      -0.89210000
H       -0.93700000      -1.90730000       1.98230000
H       -0.39000000      -2.87990000       0.60860000
H        1.39810000      -0.74940000       1.75440000
H        2.07720000      -0.09500000      -0.54870000
H        0.23880000      -2.33740000      -1.59250000
H        1.27140000      -1.30050000      -2.57570000
H        2.31180000      -2.97400000      -0.57740000
