18
Properties=species:S:1:pos:R:3 gdb_50316=T pbc="F F F"
O       -0.37280000       0.15130000      -0.09450000
C       -0.09700000       1.31660000       0.02060000
C        1.31200000       1.88270000       0.05050000
C        1.53870000       2.68340000      -1.25970000
C        2.73440000       3.62570000      -1.18710000
N        2.42020000       5.04070000      -0.89880000
C        3.10330000       4.20990000       0.12500000
C        2.31150000       3.80420000       1.31240000
C        1.50620000       2.74280000       1.28350000
H       -0.89390000       2.09410000       0.09910000
H        1.99110000       1.02120000       0.08770000
H        1.65360000       1.98150000      -2.09110000
H        0.64770000       3.28780000      -1.46380000
H        3.53990000       3.42750000      -1.88920000
H        3.10480000       5.64330000      -1.35110000
H        4.15310000       4.42670000       0.31160000
H        2.42550000       4.38360000       2.22460000
H        0.96690000       2.44780000       2.18060000
