23
Properties=species:S:1:pos:R:3 gdb_114836=T pbc="F F F"
C       -0.06010000       1.41450000      -0.09520000
O       -0.01950000       0.04250000       0.21410000
C       -1.26780000      -0.60900000       0.08960000
C       -1.72270000      -0.88310000      -1.38590000
C       -1.89790000      -2.41830000      -1.41810000
C       -0.49810000      -3.07240000      -1.38070000
C       -0.01110000      -2.78580000       0.07620000
C       -1.20220000      -2.02320000       0.70160000
C       -2.40890000      -2.69540000       0.01440000
H        0.94260000       1.81620000       0.07190000
H       -0.34200000       1.60010000      -1.14270000
H       -0.77090000       1.95530000       0.55040000
H       -2.03080000      -0.01370000       0.61630000
H       -2.66110000      -0.36990000      -1.61730000
H       -0.96740000      -0.53550000      -2.09750000
H       -2.53040000      -2.77360000      -2.23430000
H       -0.56750000      -4.14790000      -1.57170000
H        0.17020000      -2.65120000      -2.13760000
H        0.17240000      -3.71530000       0.62310000
H        0.90380000      -2.19330000       0.10850000
H       -1.20090000      -2.01520000       1.79300000
H       -3.36510000      -2.20940000       0.23570000
H       -2.49420000      -3.76100000       0.24850000
