20
Properties=species:S:1:pos:R:3 gdb_58451=T pbc="F F F"
C       -0.01930000       1.65520000       0.04170000
C        0.05720000       0.13730000      -0.14080000
O        1.02440000      -0.42860000       0.73160000
C       -1.29810000      -0.56600000       0.03620000
C       -2.40850000      -0.03590000      -0.85180000
C       -1.22580000      -2.10890000       0.17250000
C       -1.67470000      -1.86090000       1.59260000
N       -1.95000000      -2.58600000       2.57730000
O       -1.69570000      -0.48300000       1.46750000
H        0.99140000       2.06940000       0.01780000
H       -0.60610000       2.13590000      -0.74570000
H       -0.47440000       1.90280000       1.00700000
H        0.41570000      -0.09420000      -1.15190000
H        0.72150000      -0.25850000       1.63190000
H       -2.12350000      -0.11520000      -1.90660000
H       -3.32570000      -0.61190000      -0.70160000
H       -2.62720000       1.01180000      -0.63210000
H       -1.92540000      -2.67560000      -0.44360000
H       -0.22290000      -2.52790000       0.09780000
H       -2.22660000      -2.02440000       3.38470000
