23
Properties=species:S:1:pos:R:3 gdb_65656=T pbc="F F F"
C        0.21900000       1.57050000       0.30650000
C        0.00960000       0.08690000       0.06060000
C       -1.42940000      -0.40350000       0.16770000
C       -2.40280000       0.21630000      -0.83080000
C       -2.36770000      -0.24230000      -2.30820000
O       -3.77140000      -0.57200000      -2.28550000
C       -3.84700000      -0.33400000      -0.86560000
C        0.92530000      -0.59280000      -0.93390000
C        1.09180000      -0.84820000       0.54590000
H        1.28280000       1.82560000       0.27750000
H       -0.28410000       2.18700000      -0.44660000
H       -0.16630000       1.86610000       1.28990000
H       -1.44810000      -1.49490000       0.04820000
H       -1.79780000      -0.20210000       1.18450000
H       -2.39510000       1.30610000      -0.74800000
H       -2.13550000       0.51830000      -3.06260000
H       -1.74560000      -1.12820000      -2.49670000
H       -3.98910000      -1.26700000      -0.30060000
H       -4.65340000       0.36220000      -0.60640000
H        0.52590000      -1.39610000      -1.54340000
H        1.67400000       0.01080000      -1.43640000
H        1.95330000      -0.41760000       1.04550000
H        0.79770000      -1.81950000       0.93050000
