19
Properties=species:S:1:pos:R:3 gdb_113273=T pbc="F F F"
C       -0.38370000       1.07640000      -0.22190000
O        0.50070000       0.01450000       0.09770000
C        0.97340000      -0.65060000      -1.02410000
C        1.58460000      -2.00330000      -0.80710000
C        0.25910000      -1.87650000      -1.53660000
C       -1.02210000      -2.35590000      -0.90240000
O        0.28060000      -1.99290000      -2.95590000
C        0.59680000      -3.20070000      -3.47060000
O        0.59000000      -3.41860000      -4.64470000
H        0.10870000       1.82730000      -0.85650000
H       -1.28220000       0.71690000      -0.74100000
H       -0.67490000       1.54300000       0.72130000
H        1.42460000      -0.01550000      -1.78770000
H        2.47580000      -2.25070000      -1.37200000
H        1.54990000      -2.40300000       0.20060000
H       -1.05720000      -2.04830000       0.14490000
H       -1.88440000      -1.92680000      -1.42180000
H       -1.10770000      -3.44690000      -0.94620000
H        0.86490000      -3.94190000      -2.69530000
