21
Properties=species:S:1:pos:R:3 gdb_91773=T pbc="F F F"
O        0.10700000       1.40460000      -0.19170000
C        0.06070000      -0.00390000      -0.02510000
C        0.66900000      -0.53880000       1.30480000
C       -0.50610000      -1.31250000       1.94610000
C       -1.35570000      -0.45990000       2.89890000
C       -1.85510000       0.81300000       2.18890000
C       -2.34970000       0.50340000       0.76320000
C       -1.41110000      -0.48340000       0.05380000
O       -1.31410000      -1.68530000       0.81900000
H        1.02420000       1.66040000      -0.32520000
H        0.54610000      -0.49610000      -0.87790000
H        1.51140000      -1.20780000       1.11220000
H        1.02560000       0.28720000       1.92660000
H       -0.18840000      -2.23900000       2.43120000
H       -2.20440000      -1.07370000       3.22220000
H       -0.78060000      -0.20360000       3.79680000
H       -2.64990000       1.28680000       2.77440000
H       -1.04040000       1.54100000       2.12190000
H       -3.33850000       0.03130000       0.79710000
H       -2.44110000       1.42440000       0.18050000
H       -1.80650000      -0.75530000      -0.92830000
