17
Properties=species:S:1:pos:R:3 gdb_51115=T pbc="F F F"
O       -0.68950000       0.70500000       0.60910000
C        0.14370000       0.93720000      -0.22760000
C        1.27780000       1.93490000      -0.06500000
C        1.25740000       2.97030000      -1.15740000
C        1.87590000       2.81200000      -2.52450000
C        2.35470000       3.92200000      -1.62510000
C        1.32350000       5.09290000      -1.57340000
O        0.21880000       4.79580000      -2.43990000
C        0.26460000       4.18980000      -1.14280000
H        0.12660000       0.42620000      -1.21750000
H        1.20050000       2.38520000       0.93060000
H        2.22340000       1.37730000      -0.11450000
H        2.56580000       1.97860000      -2.61670000
H        1.30640000       3.04240000      -3.41570000
H        3.37070000       3.99750000      -1.26050000
H        1.52260000       6.13360000      -1.35040000
H       -0.58850000       4.32240000      -0.48780000
