17
Properties=species:S:1:pos:R:3 gdb_28604=T pbc="F F F"
O        1.06240000       1.09850000      -0.44640000
C        0.32080000       0.00700000      -0.13270000
C       -0.84390000      -0.54630000      -0.58620000
N       -1.12100000      -1.69570000       0.13500000
C       -0.14800000      -1.83300000       1.00230000
N        0.76550000      -0.80990000       0.87770000
C        0.00010000      -2.91140000       1.99590000
C       -1.23940000      -3.49930000       2.64190000
C       -0.46620000      -4.31110000       1.64550000
H        0.62400000       1.56540000      -1.16430000
H       -1.49130000      -0.19530000      -1.37500000
H        1.60480000      -0.66470000       1.41360000
H        0.88570000      -2.83310000       2.61910000
H       -1.18460000      -3.76960000       3.69070000
H       -2.18420000      -3.07860000       2.31820000
H       -0.89580000      -4.43150000       0.65790000
H        0.12700000      -5.14660000       2.00070000
