22
Properties=species:S:1:pos:R:3 gdb_105263=T pbc="F F F"
C        0.00960000       1.42180000      -0.04600000
N        0.18090000      -0.01970000       0.10630000
C        1.49850000      -0.58170000      -0.16440000
C        0.96230000      -0.55110000       1.23360000
C        1.59050000       0.39850000       2.25670000
O        2.58440000       1.27770000       1.75220000
C        0.36950000      -1.82310000       1.78810000
C        1.10250000      -2.73180000       2.74490000
C       -0.11460000      -1.97180000       3.21140000
H        0.88750000       2.01540000       0.23930000
H       -0.22970000       1.63040000      -1.09390000
H       -0.84460000       1.74480000       0.55870000
H        1.51630000      -1.51750000      -0.71950000
H        2.29870000       0.11190000      -0.41600000
H        0.81470000       1.04850000       2.67610000
H        1.99310000      -0.19030000       3.09230000
H        3.33010000       0.74050000       1.46580000
H       -0.23940000      -2.32280000       1.04160000
H        1.01990000      -3.80230000       2.59250000
H        2.07110000      -2.41870000       3.12130000
H        0.03650000      -1.15250000       3.90580000
H       -1.03540000      -2.51950000       3.37810000
