13
Properties=species:S:1:pos:R:3 gdb_130589=T pbc="F F F"
O        0.01400000      -0.03620000       0.00440000
C       -0.00630000       1.17020000       0.01020000
C       -1.21500000       2.08350000       0.03120000
C       -0.82180000       3.37120000       0.03170000
C        0.65870000       3.43170000       0.01140000
C        1.13640000       2.13760000      -0.00120000
N        2.47960000       2.21030000      -0.01940000
N        2.91770000       3.48450000      -0.01970000
C        1.80350000       4.23950000      -0.00080000
H       -2.22380000       1.69680000       0.04340000
H       -1.47360000       4.23550000       0.04470000
H        3.15400000       1.46210000      -0.03220000
H        1.90110000       5.31470000       0.00280000
