15
Properties=species:S:1:pos:R:3 gdb_29037=T pbc="F F F"
C       -0.59290000       1.41470000       0.07390000
C       -0.04620000       0.02530000      -0.01540000
N        0.14060000      -0.54670000      -1.15060000
C        0.47050000      -1.86020000      -1.34260000
C        0.12910000      -2.92110000      -0.55670000
C       -0.48680000      -2.78770000       0.73290000
N       -0.39320000      -1.78620000       1.54400000
C        0.36000000      -0.65990000       1.27160000
O        1.20710000      -0.20060000       2.00170000
H        0.10720000       2.04640000       0.63030000
H       -0.76340000       1.82330000      -0.92270000
H       -1.53440000       1.41440000       0.63580000
H        0.93370000      -2.05230000      -2.30750000
H        0.23800000      -3.92140000      -0.96430000
H       -1.09810000      -3.62420000       1.07840000
