16
Properties=species:S:1:pos:R:3 gdb_54900=T pbc="F F F"
N        0.08360000       1.19510000       0.63230000
C       -0.03510000      -0.00350000      -0.00200000
N        1.07670000      -0.45300000      -0.67240000
H        1.94960000      -0.39620000      -0.16420000
H        0.96180000      -1.29730000      -1.21010000
N       -1.18140000      -0.65620000       0.01250000
C       -2.44650000      -0.14810000       0.36360000
H       -2.62360000       0.91390000       0.31890000
C       -3.39980000      -1.19760000       0.29570000
O       -4.62260000      -1.19440000       0.45510000
C       -2.57330000      -2.42050000      -0.03340000
C       -1.29520000      -2.06860000      -0.20390000
H        0.60940000       1.92430000       0.17720000
H       -0.71760000       1.48710000       1.17130000
H       -2.97530000      -3.42110000      -0.10150000
H       -0.40310000      -2.65610000      -0.35120000
