18
Properties=species:S:1:pos:R:3 gdb_2545=T pbc="F F F"
C        0.10460000       1.52450000       0.11010000
C       -0.05090000       0.01260000      -0.08400000
N        0.63820000      -0.50420000      -1.25730000
C        2.08630000      -0.69880000      -1.21900000
C        2.48930000      -2.06370000      -0.65320000
C       -0.04480000      -0.85570000      -2.38150000
O        0.45280000      -1.30590000      -3.39400000
H        1.15470000       1.81180000       0.21990000
H       -0.30700000       2.06860000      -0.74520000
H       -0.42520000       1.84670000       1.01220000
H        0.31050000      -0.51990000       0.80460000
H       -1.11250000      -0.23770000      -0.18410000
H        2.44720000      -0.60160000      -2.24520000
H        2.52870000       0.10900000      -0.62670000
H        2.11160000      -2.20640000       0.36460000
H        2.09540000      -2.86490000      -1.28390000
H        3.57970000      -2.15450000      -0.62250000
H       -1.13460000      -0.68150000      -2.27400000
