22
Properties=species:S:1:pos:R:3 gdb_109051=T pbc="F F F"
C       -0.17910000       1.52960000       0.10190000
C        0.05870000       0.01010000       0.03680000
C        0.75800000      -0.43560000      -1.22350000
C        2.02760000      -0.85710000      -1.22590000
C        2.71170000      -1.29870000      -2.46550000
N        2.01940000      -2.33390000      -3.29270000
C        2.09950000      -0.94890000      -3.77650000
C        0.81820000      -0.14410000      -3.75980000
C       -0.03980000      -0.42930000      -2.51120000
H        0.77150000       2.07160000       0.08130000
H       -0.78180000       1.88250000      -0.74120000
H       -0.70690000       1.80170000       1.02150000
H        0.64730000      -0.29890000       0.90780000
H       -0.90980000      -0.50350000       0.11650000
H        2.59610000      -0.88830000      -0.29940000
H        3.79510000      -1.36600000      -2.41620000
H        2.71520000      -2.90460000      -3.76700000
H        2.77520000      -0.73840000      -4.60360000
H        1.09050000       0.91920000      -3.78300000
H        0.23050000      -0.34070000      -4.66390000
H       -0.51810000      -1.40940000      -2.62630000
H       -0.85220000       0.30360000      -2.45550000
