14
Properties=species:S:1:pos:R:3 gdb_129271=T pbc="F F F"
N       -0.18680000       1.15330000       0.51170000
C       -0.01690000      -0.04240000       0.18550000
O        0.98820000      -0.63060000      -0.52290000
N        0.71800000      -2.02610000      -0.63330000
C       -0.38380000      -2.18190000       0.00290000
O       -0.90340000      -1.04130000       0.52620000
C       -1.10480000      -3.44170000       0.18850000
C       -1.87120000      -3.66170000       1.45210000
N       -2.57960000      -3.44500000       0.19160000
H        0.57070000       1.73870000       0.16930000
H       -0.63770000      -4.27800000      -0.31950000
H       -1.92920000      -4.67060000       1.84840000
H       -1.86040000      -2.86780000       2.19260000
H       -2.92790000      -2.48950000       0.14790000
