12
Properties=species:S:1:pos:R:3 gdb_130556=T pbc="F F F"
O        0.01960000      -0.06880000       0.00290000
C        0.01870000       1.13630000       0.00600000
C        1.21570000       1.94450000       0.00010000
C        2.23900000       2.57530000      -0.00510000
N       -1.18540000       1.87160000       0.01590000
C       -1.39800000       3.23930000       0.02080000
N       -2.66730000       3.50630000       0.03000000
N       -3.35080000       2.28730000       0.03140000
C       -2.46270000       1.34120000       0.02300000
H        3.14900000       3.12650000      -0.00960000
H       -0.59190000       3.95450000       0.01730000
H       -2.64280000       0.27900000       0.02150000
