17
Properties=species:S:1:pos:R:3 gdb_26954=T pbc="F F F"
N        0.31780000       1.42450000       0.37080000
C        0.06570000       0.05550000       0.11380000
C       -1.07080000      -0.66920000      -0.20190000
C       -0.67260000      -2.03160000      -0.35120000
C        0.68040000      -2.09600000      -0.12350000
N        1.11790000      -0.82600000       0.15090000
C       -2.42860000      -0.11690000      -0.34380000
C       -3.38150000      -0.56490000      -1.37630000
O       -3.53180000      -0.98160000      -0.02130000
H       -0.07950000       2.02390000      -0.34320000
H       -0.05860000       1.72350000       1.26530000
H       -1.32500000      -2.86340000      -0.56640000
H        1.35990000      -2.93270000      -0.12560000
H        2.06360000      -0.53980000       0.33820000
H       -2.55040000       0.90280000       0.02590000
H       -4.14580000       0.11890000      -1.74640000
H       -3.07270000      -1.34140000      -2.07490000
