19
Properties=species:S:1:pos:R:3 gdb_89388=T pbc="F F F"
C       -0.23490000       1.48800000       0.14810000
C        0.11030000       0.03030000      -0.03480000
C       -0.72610000      -1.03300000       0.59370000
C        0.70640000      -0.80510000       1.09640000
C        1.72210000      -1.71510000       0.50870000
O        2.54010000      -2.38630000       1.09280000
C        1.58310000      -1.67700000      -1.03550000
O        0.82740000      -2.80780000      -1.47130000
C        0.81260000      -0.38510000      -1.33540000
H        0.65430000       2.12220000       0.05750000
H       -0.95550000       1.81540000      -0.61040000
H       -0.68180000       1.67130000       1.13010000
H       -1.50210000      -0.72160000       1.28520000
H       -0.93640000      -1.94200000       0.04300000
H        0.85070000      -0.43840000       2.10530000
H        2.58170000      -1.68530000      -1.49100000
H        1.27950000      -3.59390000      -1.14240000
H        0.11240000      -0.53180000      -2.16350000
H        1.51770000       0.39970000      -1.63010000
