17
Properties=species:S:1:pos:R:3 gdb_49768=T pbc="F F F"
O        0.00890000      -0.13000000       0.00750000
C        0.00980000       1.07190000       0.06010000
C        1.25630000       1.94390000       0.04450000
C        1.22140000       2.91620000      -1.11520000
C        1.07060000       4.18040000      -0.71940000
C        1.00570000       4.31690000       0.77940000
C        1.29670000       2.89190000       1.26410000
C        1.08560000       2.43460000       2.64330000
O        2.39810000       2.72000000       2.15200000
H       -0.94150000       1.65030000       0.12150000
H        2.12880000       1.28340000       0.04340000
H        1.29210000       2.58100000      -2.14320000
H        1.00900000       5.03450000      -1.38420000
H        1.75040000       5.01200000       1.18400000
H        0.02260000       4.67260000       1.11470000
H        0.70210000       3.13160000       3.38770000
H        0.88070000       1.38330000       2.84330000
