13
Properties=species:S:1:pos:R:3 gdb_3667=T pbc="F F F"
C        0.04250000       1.54230000       0.00690000
C        0.03290000       0.04440000       0.00180000
C        0.03720000      -0.79690000      -1.09570000
O        0.03440000      -0.57850000      -2.43040000
N        0.03560000      -2.06850000      -0.64040000
N        0.02820000      -2.13370000       0.71640000
C        0.02880000      -0.86160000       1.09220000
H        1.05630000       1.96250000      -0.00160000
H       -0.48790000       1.95760000      -0.85970000
H       -0.46080000       1.93300000       0.89620000
H        0.06260000       0.37140000      -2.58430000
H        0.02740000      -2.91050000      -1.18980000
H        0.02150000      -0.61740000       2.14580000
