14
Properties=species:S:1:pos:R:3 gdb_127360=T pbc="F F F"
C        0.01550000       1.47360000       0.00380000
N       -0.00230000       0.02760000       0.02450000
C       -0.06620000      -0.82530000      -1.06580000
N       -0.07030000      -2.10500000      -0.80070000
C       -0.00400000      -2.13320000       0.58210000
N        0.02890000      -3.06420000       1.51140000
O        0.09600000      -2.32900000       2.69790000
C        0.10210000      -0.99100000       2.46040000
C        0.03940000      -0.81340000       1.11900000
H        0.93360000       1.86110000       0.45780000
H       -0.02970000       1.81290000      -1.03300000
H       -0.84490000       1.88420000       0.54270000
H       -0.10890000      -0.40850000      -2.06440000
H        0.15250000      -0.36120000       3.33230000
