21
Properties=species:S:1:pos:R:3 gdb_41962=T pbc="F F F"
C       -0.02320000       1.54640000       0.02300000
C        1.40420000       2.14710000      -0.01680000
C        2.49290000       1.06140000      -0.13600000
O        2.71210000       0.46800000       1.16040000
C        1.99490000      -0.71550000       1.46420000
C        0.46900000      -0.59570000       1.34760000
C       -0.01850000      -0.00440000      -0.00600000
C        0.87340000      -0.45040000      -1.14600000
C        2.10140000       0.06690000      -1.20740000
H       -0.56220000       1.88500000       0.91410000
H       -0.59640000       1.90030000      -0.83970000
H        1.50330000       2.83060000      -0.86670000
H        1.61710000       2.72570000       0.88700000
H        3.44850000       1.53630000      -0.37810000
H        2.33860000      -1.54440000       0.83030000
H        2.27190000      -0.95890000       2.49510000
H        0.05350000      -1.60160000       1.48850000
H        0.07730000       0.02460000       2.16270000
H       -1.04570000      -0.34330000      -0.17220000
H        0.51380000      -1.17450000      -1.87130000
H        2.81240000      -0.20140000      -1.98180000
