15
Properties=species:S:1:pos:R:3 gdb_35657=T pbc="F F F"
C        0.05710000      -1.14960000       0.26800000
C        0.00540000       0.03720000       0.08750000
C       -0.04580000       1.48580000      -0.15020000
O       -0.72590000       2.17840000       0.90150000
C        0.18150000       3.00820000       1.61580000
C        1.46950000       2.97220000       0.81680000
C        1.33070000       2.10850000      -0.19250000
C        2.59800000       3.74630000       1.16500000
C        3.52970000       4.43020000       1.50460000
H        0.09720000      -2.19830000       0.43210000
H       -0.59980000       1.66390000      -1.08470000
H       -0.23500000       4.02120000       1.68720000
H        0.33650000       2.63510000       2.63930000
H        2.07560000       1.84070000      -0.92820000
H        4.36140000       5.02530000       1.79100000
