16
Properties=species:S:1:pos:R:3 gdb_130940=T pbc="F F F"
O       -0.58980000       0.66750000       0.75440000
C        0.03960000       0.99440000      -0.21710000
C        1.33160000       1.78060000      -0.18980000
C        1.23650000       3.06480000      -1.04600000
C        2.53520000       3.80630000      -1.13520000
C        2.90120000       4.97170000      -0.53690000
O        4.16020000       5.30340000      -0.85720000
N        4.67880000       4.33220000      -1.70530000
C        3.71550000       3.45950000      -1.85930000
H       -0.31140000       0.72920000      -1.24320000
H        1.58730000       2.01210000       0.84730000
H        2.12170000       1.13550000      -0.59920000
H        0.89220000       2.79930000      -2.05360000
H        0.47010000       3.72260000      -0.62270000
H        2.38580000       5.65680000       0.11890000
H        3.88750000       2.60010000      -2.49340000
