13
Properties=species:S:1:pos:R:3 gdb_27984=T pbc="F F F"
O        0.07540000       1.35230000       0.23400000
C        0.01590000       0.01230000       0.09220000
C       -1.05370000      -0.79410000       0.05820000
N       -0.57610000      -2.12600000      -0.01390000
C       -1.40520000      -3.24490000      -0.05220000
O       -1.04610000      -4.38640000      -0.12670000
C        0.84870000      -2.13020000      -0.02090000
O        1.60430000      -3.06510000      -0.03980000
N        1.16900000      -0.77350000       0.00910000
H        0.60140000       1.73550000      -0.47920000
H       -2.10350000      -0.56200000       0.05830000
H       -2.46810000      -2.93410000      -0.00630000
H        2.10500000      -0.46630000       0.21560000
