21
Properties=species:S:1:pos:R:3 gdb_63991=T pbc="F F F"
C       -0.57240000       1.55730000      -0.15800000
C        0.07910000       0.17830000      -0.00800000
C       -1.00630000      -0.90550000       0.11060000
C        1.02070000      -0.16660000      -1.20510000
C        2.17190000      -0.89560000      -0.57090000
C        2.18360000      -0.75840000       0.76390000
C        1.02070000       0.10130000       1.23210000
C        3.14500000      -1.28230000       1.66110000
C        3.93450000      -1.70810000       2.46640000
H        0.18250000       2.34630000      -0.24360000
H       -1.20460000       1.60010000      -1.05210000
H       -1.20540000       1.79190000       0.70520000
H       -1.64620000      -0.91940000      -0.77860000
H       -0.55850000      -1.89890000       0.21970000
H       -1.64610000      -0.72670000       0.98170000
H        0.51000000      -0.76180000      -1.97220000
H        1.37560000       0.74260000      -1.71280000
H        2.91930000      -1.43880000      -1.13750000
H        1.38550000       1.09380000       1.52840000
H        0.51900000      -0.32030000       2.10990000
H        4.64020000      -2.08900000       3.16200000
