20
Properties=species:S:1:pos:R:3 gdb_39630=T pbc="F F F"
C       -0.05710000       1.23910000      -0.19500000
C        1.45180000       1.48570000      -0.00080000
C        1.42850000       0.12960000       0.74490000
O        0.02990000      -0.06730000       0.41260000
C        2.28790000      -0.98570000       0.22350000
C        3.82070000      -1.17970000       0.32060000
N        3.38840000      -2.44660000      -0.44210000
C        2.23310000      -2.49220000       0.57550000
C        2.47010000      -1.49230000      -1.22840000
H       -0.71320000       1.90960000       0.37460000
H       -0.41690000       1.18640000      -1.22890000
H        2.03710000       1.47570000      -0.92240000
H        1.72880000       2.35680000       0.59360000
H        1.55930000       0.22210000       1.83370000
H        4.46470000      -0.51750000      -0.26550000
H        4.25390000      -1.38920000       1.30280000
H        2.54740000      -2.79930000       1.57710000
H        1.36850000      -3.06510000       0.23270000
H        1.62470000      -1.99380000      -1.70530000
H        3.01250000      -0.85880000      -1.93650000
