13
Properties=species:S:1:pos:R:3 gdb_47958=T pbc="F F F"
O       -0.35590000       0.34420000       0.85750000
C        0.01610000       1.09230000      -0.01390000
C        1.21870000       1.88980000       0.07090000
C        2.21690000       2.57200000       0.12080000
C        3.41330000       3.39680000       0.19570000
O        3.35530000       4.55860000       0.51290000
C        4.70690000       2.65330000      -0.15590000
C        5.89680000       3.48300000      -0.11030000
C        6.88510000       4.16290000      -0.07500000
H       -0.54590000       1.22400000      -0.95940000
H        4.78970000       1.80060000       0.53280000
H        4.57130000       2.20560000      -1.15030000
H        7.75730000       4.76790000      -0.04170000
