15
Properties=species:S:1:pos:R:3 gdb_33890=T pbc="F F F"
N        0.04410000      -1.10060000      -0.03950000
C        0.05590000       0.05520000      -0.00710000
C        0.02410000       1.48710000       0.07470000
O        0.34450000       2.23280000      -1.11350000
C        1.18620000       2.38910000       0.03700000
C        0.72640000       3.44850000       1.07790000
C       -0.74920000       3.70450000       0.67780000
C       -0.85270000       2.22950000       1.13760000
N        0.15830000       2.59940000       2.18990000
H        2.21630000       2.06730000      -0.07420000
H        1.42890000       4.23590000       1.34630000
H       -1.23740000       4.36520000       1.39120000
H       -0.98040000       3.95190000      -0.35390000
H       -1.77520000       1.74650000       1.45410000
H        0.76570000       1.82010000       2.45360000
