17
Properties=species:S:1:pos:R:3 gdb_31096=T pbc="F F F"
C       -0.41460000       0.38210000      -0.68700000
O       -0.16460000       0.70760000       0.67120000
C        0.56600000      -0.17900000       1.39030000
C        1.07460000      -1.40690000       1.08240000
O        0.96710000      -2.20960000      -0.00130000
O        1.74270000      -1.92060000       2.16290000
C        1.66550000      -0.99700000       3.17000000
C        2.35020000      -1.33640000       4.44380000
C        0.94980000       0.07750000       2.75150000
H       -0.97260000      -0.55600000      -0.78060000
H       -1.00700000       1.20470000      -1.09180000
H        0.51930000       0.29150000      -1.25530000
H        1.85070000      -2.43970000      -0.31530000
H        1.95630000      -2.26110000       4.88130000
H        3.42810000      -1.47710000       4.29990000
H        2.20580000      -0.52890000       5.16500000
H        0.71610000       0.96570000       3.31710000
