18
Properties=species:S:1:pos:R:3 gdb_75180=T pbc="F F F"
C        0.02820000       1.51330000       0.08620000
C       -0.02110000       0.01700000      -0.03610000
C       -0.07000000      -0.63260000      -1.19960000
C       -0.06670000      -2.13530000      -1.29240000
C        0.41070000      -2.71820000       0.04800000
O       -0.29330000      -2.13200000       1.12730000
C       -0.00380000      -0.74990000       1.26450000
C        0.21150000      -4.17210000       0.11730000
N        0.07410000      -5.31850000       0.12980000
H        0.92020000       1.83870000       0.63690000
H        0.04470000       1.99270000      -0.89570000
H       -0.83810000       1.89660000       0.64010000
H       -0.10450000      -0.07690000      -2.13310000
H       -1.06620000      -2.52330000      -1.52500000
H        0.59730000      -2.47630000      -2.09520000
H        1.49180000      -2.52610000       0.15310000
H        0.97100000      -0.61090000       1.76710000
H       -0.76830000      -0.35960000       1.94620000
