23
Properties=species:S:1:pos:R:3 gdb_119263=T pbc="F F F"
C       -0.07680000       1.59280000      -0.09860000
C       -0.02970000       0.06380000      -0.16010000
C       -1.35240000      -0.58350000       0.27590000
C       -1.38980000      -2.09490000       0.11120000
C       -0.39540000      -2.88330000       0.95020000
C       -0.50110000      -4.40850000       0.85720000
O        0.54960000      -5.05750000       1.55720000
C       -2.63230000      -2.71070000      -0.38610000
O       -1.51310000      -2.52630000      -1.25820000
H        0.87480000       2.03280000      -0.41230000
H       -0.86010000       1.99140000      -0.75280000
H       -0.28640000       1.94350000       0.91830000
H        0.19750000      -0.26080000      -1.18260000
H        0.79110000      -0.29640000       0.47140000
H       -1.56110000      -0.33310000       1.32500000
H       -2.16820000      -0.15580000      -0.31850000
H        0.61660000      -2.59350000       0.63580000
H       -0.48790000      -2.57910000       1.99980000
H       -1.42220000      -4.75930000       1.33320000
H       -0.53470000      -4.71130000      -0.19870000
H        1.37210000      -4.86630000       1.09540000
H       -2.87550000      -3.74550000      -0.15430000
H       -3.49440000      -2.07700000      -0.59280000
