16
Properties=species:S:1:pos:R:3 gdb_3549=T pbc="F F F"
C       -0.16000000       1.46390000       0.03980000
C        0.05610000      -0.04470000       0.02450000
C        0.92490000      -0.51860000      -1.14420000
C        2.16540000      -0.44090000      -0.33900000
C        1.22550000      -0.53970000       0.92720000
C        1.23670000      -2.04980000       0.64960000
N        1.66120000      -1.77680000      -0.76550000
H        0.78830000       1.99990000      -0.07760000
H       -0.82270000       1.77680000      -0.77440000
H       -0.61720000       1.78510000       0.98180000
H       -0.89810000      -0.56730000       0.17180000
H        0.78240000      -0.35380000      -2.20500000
H        3.16550000      -0.07630000      -0.53160000
H        1.38160000      -0.11310000       1.91710000
H        2.04740000      -2.58550000       1.15030000
H        0.29790000      -2.60620000       0.76220000
