21
Properties=species:S:1:pos:R:3 gdb_75301=T pbc="F F F"
C       -0.62770000       1.42900000       0.06570000
C       -0.01890000       0.04600000       0.03150000
C       -0.10840000      -0.69430000      -1.08050000
C        0.37080000      -2.09170000      -1.38220000
C        1.25040000      -2.75460000      -0.33460000
C        2.38750000      -1.87290000       0.21960000
C        1.40820000      -1.64700000       1.38910000
C        0.62280000      -0.34600000       1.34690000
O        0.59800000      -2.77080000       0.96110000
H        0.13270000       2.19470000       0.26870000
H       -1.11920000       1.68130000      -0.87720000
H       -1.37130000       1.51300000       0.86910000
H       -0.63150000      -0.23820000      -1.92070000
H       -0.50620000      -2.73370000      -1.55330000
H        0.91560000      -2.08430000      -2.33870000
H        1.52470000      -3.76720000      -0.65100000
H        3.27040000      -2.44570000       0.50770000
H        2.68140000      -1.00170000      -0.36810000
H        1.80670000      -1.81130000       2.39680000
H        1.28900000       0.46760000       1.67360000
H       -0.16600000      -0.39600000       2.11250000
