14
Properties=species:S:1:pos:R:3 gdb_48395=T pbc="F F F"
O       -0.14850000       0.07360000      -0.38620000
C       -0.03130000       1.21630000      -0.04470000
C        1.31050000       1.95120000      -0.01540000
C        2.56940000       1.14880000      -0.51610000
C        2.67880000       2.13130000      -1.68900000
O        1.43710000       2.09090000      -2.40710000
C        1.51090000       2.90610000      -1.25350000
C        1.49030000       2.63960000       1.25050000
N        1.61060000       3.20050000       2.25480000
H       -0.89960000       1.84080000       0.25240000
H        3.40120000       1.20700000       0.18620000
H        2.35650000       0.11340000      -0.78290000
H        3.55820000       2.44350000      -2.23750000
H        1.24200000       3.95300000      -1.32040000
