17
Properties=species:S:1:pos:R:3 gdb_42986=T pbc="F F F"
O        0.07370000       0.09210000       0.37950000
C        0.02780000       1.26980000       0.11550000
C       -1.21300000       2.06610000      -0.21130000
O       -1.31520000       3.21180000       0.66020000
C       -0.77960000       3.40770000      -0.64420000
C        0.73890000       3.50590000      -0.65030000
C        1.19740000       2.21180000       0.02370000
C        2.21890000       2.15530000       1.14870000
C        2.56530000       1.59770000      -0.19140000
H       -2.14270000       1.58120000      -0.49030000
H       -1.38280000       4.01420000      -1.31460000
H        1.09890000       3.56850000      -1.68400000
H        1.07350000       4.40700000      -0.12630000
H        2.65920000       3.09900000       1.45270000
H        2.01530000       1.45850000       1.95420000
H        2.58510000       0.51860000      -0.30020000
H        3.25640000       2.14710000      -0.82170000
