21
Properties=species:S:1:pos:R:3 gdb_114618=T pbc="F F F"
C        0.03350000       1.49910000       0.33810000
C        0.02250000       0.02480000      -0.09060000
C       -1.35790000      -0.54840000      -0.19550000
O       -2.06830000      -0.82070000       1.02710000
C       -1.89770000      -1.89160000       0.08440000
C       -2.99680000      -1.74610000      -0.97220000
C       -2.43860000      -0.31090000      -1.28200000
C       -3.38100000       0.86110000      -1.08760000
O       -4.42270000       0.73650000      -2.04880000
H        1.05860000       1.86820000       0.43590000
H       -0.47980000       2.13190000      -0.39320000
H       -0.46760000       1.62310000       1.30250000
H        0.52570000      -0.08710000      -1.05930000
H        0.58600000      -0.57450000       0.63350000
H       -1.40230000      -2.78570000       0.44750000
H       -2.88810000      -2.43120000      -1.81570000
H       -4.01980000      -1.79520000      -0.59270000
H       -1.99690000      -0.27340000      -2.28260000
H       -3.77340000       0.83630000      -0.06150000
H       -2.83620000       1.81080000      -1.21710000
H       -5.08210000       1.41150000      -1.86410000
