16
Properties=species:S:1:pos:R:3 gdb_84490=T pbc="F F F"
O        0.19230000       1.39650000      -0.25410000
C        0.05600000       0.00990000      -0.02030000
C        0.68880000      -0.51260000       1.24760000
C       -0.14270000      -1.28700000       1.95320000
C       -1.48200000      -1.37950000       1.32840000
C       -2.35190000      -2.59590000       1.34390000
N       -2.74500000      -1.41230000       2.10140000
C       -1.41720000      -0.47250000       0.11590000
O       -2.33280000      -0.15670000      -0.59320000
H       -0.29840000       1.86610000       0.42950000
H        0.49240000      -0.47130000      -0.90600000
H        1.71480000      -0.28310000       1.50880000
H        0.10030000      -1.79370000       2.88180000
H       -2.96360000      -2.79520000       0.46820000
H       -1.98100000      -3.47280000       1.86920000
H       -2.52340000      -1.53500000       3.08830000
