16
Properties=species:S:1:pos:R:3 gdb_87022=T pbc="F F F"
C       -0.18360000       1.59480000       0.22100000
C       -0.15050000       0.08930000       0.18450000
N        1.04310000      -0.55170000      -0.33750000
C        0.74600000      -0.72050000       1.09920000
C        1.62570000      -0.06370000       2.03310000
N        2.29090000       0.42270000       2.84550000
C        0.20010000      -2.08500000       1.49470000
N        0.35050000      -2.43500000       2.79140000
O       -0.34220000      -2.78030000       0.65400000
H        0.80060000       2.00490000       0.45780000
H       -0.48780000       1.97950000      -0.75770000
H       -0.90310000       1.95030000       0.96490000
H       -1.09540000      -0.41090000      -0.01860000
H        0.78480000      -1.43960000      -0.77280000
H        0.86010000      -1.86310000       3.44430000
H        0.02350000      -3.34210000       3.08100000
