14
Properties=species:S:1:pos:R:3 gdb_16197=T pbc="F F F"
O        0.06290000       0.03740000      -0.02110000
C        0.00550000       1.23720000       0.00870000
C       -1.25680000       2.11060000      -0.00420000
C       -0.70310000       3.51410000      -0.00660000
C        0.63270000       3.54860000       0.03170000
C        1.20000000       2.18290000       0.07190000
C        2.46520000       1.75910000       0.70220000
O        2.35360000       1.83810000      -0.71060000
H       -1.87930000       1.88120000      -0.87780000
H       -1.87090000       1.88590000       0.87720000
H       -1.34300000       4.38820000      -0.03430000
H        1.24970000       4.43840000       0.03050000
H        3.09890000       2.51040000       1.17250000
H        2.52430000       0.75090000       1.10960000
