19
Properties=species:S:1:pos:R:3 gdb_102865=T pbc="F F F"
O        0.45450000       1.21370000       0.10180000
C        0.12240000      -0.10820000      -0.23570000
C       -1.38160000      -0.44550000      -0.07810000
C       -2.23540000      -0.11860000      -1.31690000
C       -2.31490000       1.30770000      -1.79940000
O       -1.63950000       2.23930000      -1.42970000
C       -1.56690000      -1.93880000       0.26990000
C       -1.04110000      -2.28730000       1.64700000
O       -0.30310000      -3.20580000       1.89010000
H       -0.13320000       1.79710000      -0.40160000
H        0.44220000      -0.37320000      -1.26060000
H        0.70310000      -0.74580000       0.44060000
H       -1.74610000       0.15610000       0.76530000
H       -1.89300000      -0.70570000      -2.18530000
H       -3.27540000      -0.44480000      -1.16700000
H       -3.08670000       1.46740000      -2.58380000
H       -2.63930000      -2.18390000       0.27190000
H       -1.08040000      -2.59020000      -0.46400000
H       -1.40770000      -1.61470000       2.45800000
