21
Properties=species:S:1:pos:R:3 gdb_78303=T pbc="F F F"
C       -0.04990000       1.46980000       0.01090000
C        0.00810000      -0.04220000       0.03390000
C        1.32470000      -0.72050000      -0.25950000
C        0.76300000      -0.72200000       1.15140000
C        0.55200000      -2.25070000       1.31610000
C       -0.18800000      -2.77770000       2.51260000
C        1.90820000      -2.81660000       0.79180000
C        1.28080000      -2.24500000      -0.50480000
O       -0.02420000      -2.62920000       0.01950000
H        0.87930000       1.91490000       0.38310000
H       -0.21140000       1.84160000      -1.00690000
H       -0.86940000       1.84230000       0.63530000
H       -0.88370000      -0.54610000      -0.32240000
H        2.19620000      -0.14640000      -0.55260000
H        1.19400000      -0.14840000       1.96430000
H       -1.19520000      -2.35080000       2.55630000
H       -0.27410000      -3.86690000       2.47220000
H        0.33670000      -2.50320000       3.43370000
H        2.83990000      -2.38130000       1.16400000
H        1.93390000      -3.90840000       0.80190000
H        1.48960000      -2.63580000      -1.50070000
