18
Properties=species:S:1:pos:R:3 gdb_114509=T pbc="F F F"
O       -0.07930000       1.40230000      -0.27330000
C        0.04790000      -0.00410000      -0.12780000
C       -1.35070000      -0.55350000       0.07850000
C       -2.32940000      -0.56750000      -1.12600000
N       -2.63060000      -2.02840000      -0.93110000
C       -1.83970000      -2.90640000      -1.84670000
C       -0.69420000      -2.95220000      -0.81520000
O        0.38910000      -3.45330000      -0.76080000
C       -1.54830000      -2.09090000       0.13510000
H        0.79480000       1.77010000      -0.43270000
H        0.50750000      -0.45780000      -1.01970000
H        0.68200000      -0.26910000       0.73340000
H       -1.78940000      -0.06820000       0.95380000
H       -3.21910000       0.05720000      -1.02140000
H       -1.85840000      -0.33980000      -2.08990000
H       -2.31550000      -3.88180000      -2.00200000
H       -1.59590000      -2.47860000      -2.82570000
H       -1.78450000      -2.54430000       1.10210000
