19
Properties=species:S:1:pos:R:3 gdb_55063=T pbc="F F F"
C       -0.09510000       1.49460000       0.04130000
C        0.15330000      -0.00100000       0.05450000
O        0.48020000      -0.58590000       1.06890000
C       -0.03020000      -0.70700000      -1.24800000
C        0.70530000      -2.01560000      -1.47400000
C       -0.77880000      -2.04840000      -1.30710000
C       -1.43430000      -2.67000000      -0.08850000
C       -1.48370000      -4.17920000      -0.20070000
O       -2.47000000      -4.85010000      -0.03920000
H        0.59220000       1.98490000      -0.65800000
H       -1.11070000       1.70780000      -0.31150000
H        0.04390000       1.90470000       1.04190000
H       -0.17870000      -0.06270000      -2.10780000
H        1.13480000      -2.19030000      -2.45360000
H        1.30770000      -2.34360000      -0.63330000
H       -1.35120000      -2.16650000      -2.22350000
H       -0.84330000      -2.41990000       0.80140000
H       -2.45350000      -2.30050000       0.05910000
H       -0.50380000      -4.64930000      -0.44970000
