20
Properties=species:S:1:pos:R:3 gdb_62839=T pbc="F F F"
C       -0.13310000       1.53190000       0.04900000
C        0.06230000       0.01810000      -0.02150000
O       -1.17920000      -0.55550000      -0.39130000
C        1.32880000      -0.61690000      -0.65370000
C        2.16100000      -0.08340000       0.59450000
C        0.85350000      -0.76280000       1.11130000
C        0.09460000      -1.72560000       2.04740000
C        0.01080000      -2.65190000       0.77090000
N        1.19870000      -1.88990000       0.19350000
H        0.73940000       2.08930000       0.38710000
H       -0.40140000       1.92030000      -0.94320000
H       -0.96500000       1.75330000       0.72520000
H       -1.53930000      -0.03150000      -1.11390000
H        1.65080000      -0.62010000      -1.69990000
H        3.05020000      -0.67660000       0.79640000
H        2.33470000       0.98800000       0.68840000
H        0.71590000      -2.15380000       2.83650000
H       -0.84590000      -1.36080000       2.46410000
H        0.29530000      -3.69590000       0.92250000
H       -0.94280000      -2.58950000       0.25270000
