19
Properties=species:S:1:pos:R:3 gdb_72117=T pbc="F F F"
C       -0.02000000       1.48820000       0.02110000
C        0.02380000      -0.02730000      -0.02740000
C       -1.37010000      -0.77290000       0.06090000
C       -0.89980000      -1.90150000       0.98000000
O       -0.39920000      -1.12190000       2.11180000
C        0.67010000      -0.78360000       1.20560000
C        0.61280000      -2.17430000       0.54510000
C        1.01050000      -1.95700000      -0.88150000
C        0.73580000      -0.68440000      -1.19580000
H        0.98860000       1.91580000      -0.00490000
H       -0.57770000       1.90150000      -0.82690000
H       -0.50890000       1.83070000       0.93900000
H       -2.12720000      -0.17690000       0.57680000
H       -1.74370000      -1.08590000      -0.91610000
H       -1.58290000      -2.70330000       1.25730000
H        1.55850000      -0.35400000       1.67220000
H        1.06100000      -2.99350000       1.10490000
H        1.43120000      -2.71230000      -1.53340000
H        0.87080000      -0.20810000      -2.16070000
