20
Properties=species:S:1:pos:R:3 gdb_40262=T pbc="F F F"
C        0.08150000       1.56200000       0.13200000
C        1.35730000       0.76240000       0.01730000
C        0.02270000       0.05910000      -0.01860000
C       -0.40150000      -0.76150000       1.18130000
C       -1.90590000      -0.71600000       1.41820000
O       -2.70930000      -1.41610000       0.46320000
C       -2.71340000      -1.07820000      -0.85750000
N       -1.82490000      -0.66480000      -1.64760000
C       -0.40930000      -0.50560000      -1.36150000
H       -0.16210000       1.99390000       1.09760000
H       -0.21750000       2.17350000      -0.71260000
H        1.92400000       0.83450000      -0.90530000
H        1.97110000       0.64720000       0.90460000
H       -0.08130000      -1.80560000       1.06750000
H        0.08180000      -0.37650000       2.08780000
H       -2.15700000      -1.18910000       2.37110000
H       -2.24020000       0.32940000       1.45530000
H       -3.71090000      -1.27660000      -1.25390000
H        0.00710000       0.12460000      -2.15570000
H        0.05590000      -1.49580000      -1.49050000
