18
Properties=species:S:1:pos:R:3 gdb_102273=T pbc="F F F"
C       -0.02850000       1.48210000       0.01380000
C       -0.15900000       0.00630000       0.34860000
O        0.42440000      -0.51720000       1.28040000
N       -0.98570000      -0.70710000      -0.48250000
C       -1.01530000      -2.15420000      -0.44000000
C       -1.93540000      -2.68410000       0.67850000
O       -3.27320000      -2.26980000       0.49110000
C       -1.48680000      -2.67000000      -1.78530000
O       -1.73610000      -1.95980000      -2.72640000
H        0.13470000       2.04090000       0.93600000
H        0.84720000       1.62810000      -0.62780000
H       -0.90460000       1.87590000      -0.50810000
H       -1.27910000      -0.30990000      -1.36580000
H       -0.00570000      -2.55240000      -0.25210000
H       -1.94030000      -3.77950000       0.66210000
H       -1.52290000      -2.35710000       1.64040000
H       -3.27080000      -1.30580000       0.49750000
H       -1.59400000      -3.77280000      -1.84380000
