17
Properties=species:S:1:pos:R:3 gdb_45329=T pbc="F F F"
N       -0.09680000       1.22400000      -0.74860000
C        0.05750000       0.09330000      -0.22370000
C        1.18280000      -0.85210000       0.23820000
C        0.04760000      -1.81420000       0.69280000
C       -0.31970000      -2.03200000       2.17000000
C       -1.83840000      -1.74800000       2.16790000
C       -2.01190000      -0.64540000       1.10390000
O       -2.84860000       0.21350000       1.05850000
N       -0.93920000      -0.82430000       0.21260000
H        0.80450000       1.66460000      -0.93190000
H        1.84180000      -1.21710000      -0.55220000
H        1.78620000      -0.44440000       1.05340000
H        0.00800000      -2.74840000       0.12300000
H       -0.06140000      -3.02830000       2.53520000
H        0.19420000      -1.29790000       2.80080000
H       -2.40950000      -2.63300000       1.86220000
H       -2.24210000      -1.40460000       3.12110000
