20
Properties=species:S:1:pos:R:3 gdb_91014=T pbc="F F F"
C       -0.02830000       1.56470000       0.03560000
C       -0.00310000       0.06340000       0.03580000
C       -0.85820000      -0.78750000       0.93710000
C        0.63970000      -0.94500000       0.99910000
N        1.24130000      -1.71990000      -0.11020000
C        0.44010000      -2.86670000      -0.66040000
C       -0.14040000      -1.94990000      -1.78640000
O       -1.53700000      -1.78170000      -1.87940000
C        0.60990000      -0.77780000      -1.09790000
H        0.91990000       1.98320000      -0.32090000
H       -0.82660000       1.94610000      -0.61260000
H       -0.20870000       1.95530000       1.04240000
H       -1.26880000      -0.24660000       1.78550000
H       -1.51750000      -1.54780000       0.53750000
H        1.20010000      -0.79110000       1.91590000
H        1.08380000      -3.68030000      -1.00800000
H       -0.31240000      -3.27250000       0.02220000
H        0.28940000      -2.18170000      -2.77010000
H       -1.89960000      -2.53550000      -2.35530000
H        1.30210000      -0.21210000      -1.73000000
