21
Properties=species:S:1:pos:R:3 gdb_37986=T pbc="F F F"
C       -0.06780000       1.54820000      -0.01220000
C        1.29660000       2.23830000      -0.01250000
C        2.01070000       2.15300000       1.33920000
C        2.23500000       0.77230000       1.95060000
C        2.41470000      -0.56010000       1.16740000
O        2.21550000      -1.27140000       2.45360000
C        1.14050000      -0.25140000       2.39090000
C        0.87870000      -0.71110000       0.92770000
C        0.03270000       0.02350000      -0.10920000
H       -0.61680000       1.82890000       0.89760000
H       -0.67140000       1.90720000      -0.85390000
H        1.92730000       1.79610000      -0.79630000
H        1.18300000       3.29650000      -0.27510000
H        2.99430000       2.63070000       1.24750000
H        1.45950000       2.75820000       2.07320000
H        2.98880000       0.84120000       2.74030000
H        3.24510000      -0.89280000       0.54130000
H        0.45400000      -0.20310000       3.23870000
H        0.62880000      -1.77600000       0.91410000
H       -0.97890000      -0.39900000      -0.06060000
H        0.41430000      -0.24670000      -1.10420000
