18
Properties=species:S:1:pos:R:3 gdb_34452=T pbc="F F F"
C        0.03960000      -1.14140000      -0.01810000
C        0.01120000       0.06040000      -0.03370000
C       -0.07750000       1.49180000      -0.04320000
C       -1.29080000       2.16390000       0.61490000
C       -1.46380000       3.48850000      -0.17160000
C       -0.07900000       3.70970000      -0.78990000
C        1.00970000       3.63810000       0.30970000
N        1.26910000       2.18170000       0.03540000
C        0.41670000       2.29950000      -1.19150000
H        0.08140000      -2.20220000      -0.00360000
H       -2.16430000       1.51310000       0.53700000
H       -1.11150000       2.33100000       1.68200000
H       -2.21840000       3.37420000      -0.95760000
H       -1.77030000       4.32230000       0.46840000
H       -0.01220000       4.52090000      -1.51420000
H        1.92070000       4.18680000       0.05980000
H        0.71810000       3.87840000       1.33830000
H        0.71220000       1.91130000      -2.15900000
