19
Properties=species:S:1:pos:R:3 gdb_5566=T pbc="F F F"
C       -0.24750000       1.61550000      -0.05690000
C        0.04090000       0.10620000       0.02820000
C        0.73660000      -0.44000000      -1.18690000
C        2.08540000      -0.71100000      -1.32870000
C        3.22950000      -0.58320000      -0.37630000
N        2.27960000      -1.16470000      -2.61510000
C        1.08830000      -1.19080000      -3.29600000
C        0.11480000      -0.74630000      -2.43760000
H        0.68230000       2.18560000      -0.15220000
H       -0.86490000       1.84620000      -0.93090000
H       -0.77560000       1.96970000       0.83510000
H        0.63840000      -0.09440000       0.92540000
H       -0.90640000      -0.42810000       0.17500000
H        3.78960000      -1.52190000      -0.27720000
H        3.94470000       0.19100000      -0.68370000
H        2.86820000      -0.31330000       0.61840000
H        3.16650000      -1.45070000      -2.99150000
H        1.03840000      -1.52800000      -4.31890000
H       -0.93660000      -0.65250000      -2.66640000
