21
Properties=species:S:1:pos:R:3 gdb_61608=T pbc="F F F"
C       -0.04570000       1.62230000       0.12140000
C       -0.08960000       0.08490000       0.05290000
C        0.63020000      -0.59540000       1.24180000
N        2.04410000      -0.25030000       1.21550000
C        2.56400000       0.65900000       2.23710000
C        2.93230000      -0.78340000       2.25480000
C        2.44900000      -1.70870000       3.34960000
C       -1.47360000      -0.39410000      -0.01950000
N       -2.56480000      -0.77350000      -0.05890000
H        0.99370000       1.95560000       0.11660000
H       -0.55880000       2.06490000      -0.73560000
H       -0.52950000       1.98590000       1.03310000
H        0.42160000      -0.23980000      -0.86110000
H        0.12040000      -0.30980000       2.17560000
H        0.52910000      -1.68060000       1.13450000
H        3.26440000       1.41590000       1.89370000
H        1.87200000       0.99880000       3.00750000
H        3.91040000      -1.05170000       1.85700000
H        1.50500000      -1.37840000       3.79010000
H        2.31090000      -2.72870000       2.97410000
H        3.19270000      -1.75270000       4.15200000
