12
Properties=species:S:1:pos:R:3 gdb_129007=T pbc="F F F"
N       -0.11590000       1.30540000       0.00990000
N        1.08300000       1.91630000       0.00230000
H        1.02690000       2.92530000       0.00840000
C        2.29230000       1.30930000      -0.01230000
N        2.47070000       0.01000000      -0.02110000
C        1.31720000      -0.68280000      -0.01440000
N        1.11670000      -1.98820000      -0.01970000
C       -0.25890000      -2.06060000      -0.00750000
N       -0.97490000      -0.93550000       0.00530000
C        0.00610000       0.00140000       0.00150000
H        3.14540000       1.98080000      -0.01640000
H       -0.74520000      -3.02950000      -0.00840000
