17
Properties=species:S:1:pos:R:3 gdb_33941=T pbc="F F F"
C        0.03390000      -1.20930000      -0.04660000
C        0.05020000      -0.00790000       0.02440000
C        0.04140000       1.41920000       0.11440000
N        0.28240000       2.24310000      -1.10260000
C        1.28540000       2.25450000      -0.03300000
C        1.20650000       3.44340000       0.92500000
C       -0.13400000       3.30890000       1.64990000
N       -1.32120000       3.43640000       0.78500000
C       -0.84050000       2.09530000       1.15730000
H        0.02660000      -2.26900000      -0.11270000
H        0.59530000       1.62110000      -1.84600000
H        2.24710000       1.78490000      -0.21550000
H        2.02380000       3.37900000       1.65120000
H        1.29320000       4.39670000       0.39530000
H       -0.20430000       3.63210000       2.68420000
H       -2.13010000       3.66550000       1.35860000
H       -1.44140000       1.46040000       1.79780000
