19
Properties=species:S:1:pos:R:3 gdb_64039=T pbc="F F F"
C       -0.60120000       1.43350000       0.14050000
C        0.03090000       0.04630000       0.01510000
O       -0.98050000      -0.91780000      -0.28060000
C        1.16710000      -0.03540000      -1.04810000
C        2.12880000      -1.03770000      -0.46620000
C        1.85520000      -1.31390000       0.80750000
C        0.68370000      -0.50810000       1.32760000
C        1.19620000       0.57290000       2.26640000
O        0.86110000       0.70020000       3.41520000
H        0.13490000       2.20430000       0.38860000
H       -1.06550000       1.72190000      -0.81030000
H       -1.37710000       1.43140000       0.91100000
H       -1.41960000      -0.64230000      -1.09310000
H        0.76120000      -0.34350000      -2.01980000
H        1.64940000       0.93880000      -1.20580000
H        2.94000000      -1.47410000      -1.03840000
H        2.41060000      -1.99420000       1.44260000
H       -0.05490000      -1.09900000       1.87530000
H        1.96010000       1.24710000       1.81280000
