15
Properties=species:S:1:pos:R:3 gdb_5409=T pbc="F F F"
O        0.30870000       0.78600000       1.02960000
C       -0.06710000       0.21140000      -0.20610000
C       -1.43700000      -0.41110000      -0.08670000
C       -2.16180000      -0.38190000       1.10120000
C       -3.42050000      -0.97860000       1.13320000
N       -3.98950000      -1.58570000       0.08970000
C       -3.28420000      -1.60780000      -1.04640000
C       -2.02230000      -1.04350000      -1.18490000
H        1.18160000       1.17490000       0.92830000
H       -0.08920000       0.96610000      -1.00960000
H        0.64910000      -0.56500000      -0.52220000
H       -1.75000000       0.09690000       1.97980000
H       -4.00170000      -0.96560000       2.05280000
H       -3.75440000      -2.10430000      -1.89230000
H       -1.50490000      -1.09820000      -2.13840000
