17
Properties=species:S:1:pos:R:3 gdb_46524=T pbc="F F F"
O        0.00260000      -0.07090000      -0.02540000
C       -0.01300000       1.14540000       0.04680000
N       -1.18680000       1.86320000       0.13290000
C       -1.30520000       3.30430000       0.00030000
C       -0.04480000       3.96080000       0.51780000
C       -0.05740000       5.35020000       0.97820000
O       -0.03010000       4.26950000       1.91460000
C        1.21850000       3.33850000      -0.03380000
N        1.14290000       1.89480000       0.10200000
H       -2.00710000       1.29200000       0.01190000
H       -1.46780000       3.61030000      -1.04660000
H       -2.15800000       3.65780000       0.58740000
H        0.85260000       5.94640000       0.92080000
H       -0.98460000       5.92150000       0.94570000
H        1.34410000       3.64800000      -1.08480000
H        2.07700000       3.71550000       0.52990000
H        1.97480000       1.34610000      -0.04130000
