19
Properties=species:S:1:pos:R:3 gdb_72419=T pbc="F F F"
C        0.02010000       1.47640000       0.04150000
C       -0.03120000      -0.03180000      -0.03730000
C        0.70620000      -0.68350000      -1.23970000
C        1.08190000      -2.08340000      -0.67390000
C        0.48610000      -1.99150000       0.75510000
O        0.66360000      -0.61530000       1.09340000
C       -1.03880000      -2.08420000       0.60040000
O       -1.75170000      -3.03120000       0.79330000
C       -1.42780000      -0.67990000       0.10790000
H        1.05790000       1.82230000       0.04700000
H       -0.48830000       1.92220000      -0.81890000
H       -0.46780000       1.83390000       0.95280000
H        0.07630000      -0.73580000      -2.13140000
H        1.59730000      -0.10410000      -1.49190000
H        0.66980000      -2.91660000      -1.24880000
H        2.16430000      -2.21460000      -0.61400000
H        0.91650000      -2.64760000       1.50910000
H       -2.01290000      -0.16820000       0.87930000
H       -2.02810000      -0.72910000      -0.80390000
