21
Properties=species:S:1:pos:R:3 gdb_110684=T pbc="F F F"
C        0.19860000       1.29080000       0.17380000
O       -0.30370000       0.04210000      -0.24480000
C        0.47090000      -0.55750000      -1.24760000
C        1.73160000      -1.37560000      -0.85710000
C        0.79720000      -2.47870000      -0.25280000
C        1.43620000      -3.84770000      -0.48770000
C        1.99080000      -3.63850000      -1.92510000
C        1.53890000      -2.19810000      -2.17220000
C        0.10400000      -2.00990000      -1.57870000
H        1.19520000       1.20340000       0.63200000
H        0.26810000       2.00220000      -0.66440000
H       -0.49650000       1.69000000       0.91650000
H        0.59150000       0.12780000      -2.10110000
H        2.67920000      -1.01830000      -0.44810000
H        0.29780000      -2.28220000       0.69380000
H        2.22310000      -4.06570000       0.24170000
H        0.70400000      -4.65950000      -0.43040000
H        3.07920000      -3.74200000      -1.97940000
H        1.55940000      -4.33420000      -2.65210000
H        1.78100000      -1.73250000      -3.13000000
H       -0.83420000      -2.37840000      -1.99800000
