16
Properties=species:S:1:pos:R:3 gdb_79312=T pbc="F F F"
O       -0.10420000       1.47900000      -0.08790000
C       -0.00880000       0.07800000      -0.09450000
C       -1.33210000      -0.66690000      -0.11530000
C       -1.75910000      -0.81220000      -1.56810000
C       -0.70820000      -0.11560000      -2.43400000
C        0.33820000      -0.65720000      -1.42770000
C       -0.71380000      -1.75900000      -0.98910000
C       -0.66150000      -3.15980000      -0.83470000
N       -0.60240000      -4.31120000      -0.71660000
H        0.77300000       1.84850000       0.05440000
H        0.62140000      -0.29570000       0.72270000
H       -2.02630000      -0.81520000       0.70070000
H       -2.77940000      -1.06820000      -1.82050000
H       -0.61720000      -0.59710000      -3.41000000
H       -0.76780000       0.97040000      -2.53910000
H        1.36880000      -0.84710000      -1.71660000
