14
Properties=species:S:1:pos:R:3 gdb_57233=T pbc="F F F"
C       -0.01180000       1.54250000       0.06360000
C        0.01000000       0.00480000       0.00150000
O        0.69200000      -0.42860000       1.16980000
C       -1.38650000      -0.51380000       0.01340000
N       -2.46570000      -0.92440000       0.04720000
C        0.67490000      -0.46960000      -1.21940000
C        1.25090000      -0.86710000      -2.20580000
C        1.89510000      -1.31230000      -3.31780000
C        2.46820000      -1.70820000      -4.30340000
H        1.01810000       1.90380000       0.05580000
H       -0.55120000       1.95340000      -0.79110000
H       -0.49980000       1.85320000       0.98960000
H        0.79320000      -1.38710000       1.12600000
H        2.96990000      -2.05550000      -5.17300000
