18
Properties=species:S:1:pos:R:3 gdb_75906=T pbc="F F F"
C        0.15970000       1.63770000      -0.13960000
C        0.03780000       0.11630000       0.04600000
C        0.68400000      -0.62460000      -1.11310000
N        0.23530000      -0.65870000      -2.29100000
O        1.83970000      -1.23700000      -0.70480000
C        2.10870000      -0.96400000       0.67680000
C        0.80120000      -0.43440000       1.24120000
C        0.61390000      -0.04990000       2.63890000
O        0.09990000      -1.29210000       2.14560000
H        1.20740000       1.95400000      -0.17920000
H       -0.31590000       1.93040000      -1.07840000
H       -0.32570000       2.17090000       0.68280000
H       -1.01530000      -0.16430000       0.11670000
H        0.85230000      -1.19950000      -2.89940000
H        2.41460000      -1.88910000       1.17090000
H        2.92010000      -0.22840000       0.74450000
H        1.44330000      -0.13160000       3.34150000
H       -0.13430000       0.69780000       2.89870000
