14
Properties=species:S:1:pos:R:3 gdb_44993=T pbc="F F F"
O        0.01600000       0.04950000      -0.31720000
C       -0.00510000       1.19800000       0.02450000
C       -1.27630000       2.03850000       0.25530000
C       -0.78690000       3.30970000       0.89980000
O       -0.04790000       3.08540000       2.10290000
C        0.70020000       3.33120000       0.90490000
C        1.24420000       2.06650000       0.27660000
C        1.45970000       4.55680000       0.86090000
N        2.08700000       5.52550000       0.80010000
H       -1.76320000       2.23370000      -0.70750000
H       -1.98480000       1.48770000       0.87980000
H       -1.36600000       4.22760000       0.87080000
H        1.95090000       1.54190000       0.92420000
H        1.74780000       2.26920000      -0.67530000
