21
Properties=species:S:1:pos:R:3 gdb_111811=T pbc="F F F"
O       -0.12420000       1.49890000       0.03430000
C        0.02800000       0.08430000      -0.00040000
C       -1.36120000      -0.52000000       0.11310000
C       -1.46400000      -2.05590000       0.28630000
C       -0.84650000      -2.28950000       1.68910000
C       -1.32030000      -1.02970000       2.48440000
C       -2.13750000      -0.27210000       1.42070000
O       -3.35510000      -1.00470000       1.19950000
C       -2.98910000      -2.17290000       0.43980000
H        0.74670000       1.89780000      -0.04970000
H        0.48880000      -0.24230000      -0.94670000
H        0.68260000      -0.25840000       0.81350000
H       -1.95510000      -0.17050000      -0.73800000
H       -1.05000000      -2.67570000      -0.51120000
H       -1.20480000      -3.22380000       2.13050000
H        0.24400000      -2.35560000       1.64190000
H       -1.95540000      -1.28030000       3.33660000
H       -0.48210000      -0.43270000       2.85630000
H       -2.39550000       0.75840000       1.66010000
H       -3.51030000      -2.15950000      -0.52720000
H       -3.29090000      -3.07860000       0.98130000
