16
Properties=species:S:1:pos:R:3 gdb_19704=T pbc="F F F"
O       -0.02970000       1.44910000      -0.07560000
C        0.02490000       0.04280000       0.00300000
C        0.01500000      -0.63340000       1.39500000
C       -1.49110000      -0.20100000       1.58960000
C       -2.18320000      -1.34400000       2.31470000
C       -1.64890000      -2.43870000       1.77060000
C       -0.66270000      -1.89660000       0.74670000
C       -1.34510000      -0.64410000       0.08020000
H        0.85910000       1.79240000       0.05710000
H        0.73160000      -0.37380000      -0.72800000
H        0.79760000      -0.63650000       2.15950000
H       -1.72750000       0.83380000       1.82330000
H       -2.93350000      -1.25140000       3.08720000
H       -1.84070000      -3.48220000       1.97670000
H       -0.07050000      -2.58090000       0.13760000
H       -2.13360000      -0.65520000      -0.67640000
