15
Properties=species:S:1:pos:R:3 gdb_19460=T pbc="F F F"
N       -0.11580000      -1.24250000      -0.14210000
C       -0.07700000      -0.08840000      -0.08070000
C       -0.00940000       1.35820000       0.01600000
C       -0.04330000       2.08230000       1.39780000
C        1.05020000       1.38210000       2.22610000
C        2.17050000       1.40260000       1.13580000
C        1.35910000       2.10790000       0.03300000
O        0.68780000       3.17440000       0.76640000
H       -0.69720000       1.83630000      -0.68190000
H       -0.97830000       2.37930000       1.87000000
H        1.30430000       1.97240000       3.10790000
H        0.76740000       0.37530000       2.54110000
H        3.03390000       2.00390000       1.42470000
H        2.51180000       0.40720000       0.84340000
H        1.85060000       2.43090000      -0.88310000
