18
Properties=species:S:1:pos:R:3 gdb_45906=T pbc="F F F"
O        0.02090000      -0.11500000      -0.22950000
C       -0.03330000       1.09370000      -0.08300000
N       -1.26720000       1.70490000       0.10180000
C       -1.71120000       3.02420000      -0.14600000
C       -1.29880000       4.19960000       0.33470000
C       -0.25950000       4.56500000       1.35520000
C        0.61760000       3.40940000       1.86480000
C        1.50930000       2.88170000       0.77520000
C        1.19980000       1.92040000      -0.09430000
H       -1.99190000       1.00430000       0.00660000
H       -2.55600000       3.03980000      -0.83220000
H       -1.84480000       5.05330000      -0.06150000
H        0.38350000       5.35450000       0.94160000
H       -0.77370000       5.03220000       2.20780000
H        1.23270000       3.77350000       2.69430000
H       -0.02210000       2.61710000       2.26290000
H        2.48900000       3.34850000       0.69050000
H        1.93170000       1.57550000      -0.81770000
