21
Properties=species:S:1:pos:R:3 gdb_41382=T pbc="F F F"
C        0.19030000       1.61490000       0.44240000
C        1.44840000       1.67860000      -0.46530000
C        1.35630000       0.14510000      -0.65570000
C        2.03870000      -0.55800000      -1.87460000
C        3.18700000      -1.03990000      -0.90290000
C        2.17920000      -0.77750000       0.19440000
C        1.48910000      -1.40500000       1.14350000
C        0.04450000      -0.91880000       1.17850000
C       -0.05210000       0.12940000       0.03090000
H        0.41930000       1.71880000       1.50650000
H       -0.60900000       2.31690000       0.19400000
H        1.25620000       2.21190000      -1.40210000
H        2.36830000       2.07540000      -0.02520000
H        1.45990000      -1.40230000      -2.25730000
H        2.33600000       0.09020000      -2.70430000
H        3.56780000      -2.05780000      -1.01320000
H        4.02900000      -0.34060000      -0.91330000
H        1.82250000      -2.25700000       1.72690000
H       -0.62680000      -1.77310000       1.01520000
H       -0.25580000      -0.48210000       2.14090000
H       -0.93120000      -0.01080000      -0.60180000
