15
Properties=species:S:1:pos:R:3 gdb_77276=T pbc="F F F"
O        0.12560000       1.39220000       0.01900000
C        0.11450000       0.01820000      -0.02110000
C       -1.15460000      -0.71670000       0.25080000
O       -2.21890000       0.13500000       0.53940000
C       -3.46460000      -0.25110000       0.12660000
N       -4.45690000       0.42420000       0.49370000
C       -0.58080000      -0.73270000      -1.17850000
C       -1.23570000       0.01340000      -2.20730000
N       -1.77680000       0.61090000      -3.03740000
H       -0.77300000       1.69590000       0.20930000
H        1.04890000      -0.41610000       0.31880000
H       -1.14860000      -1.65210000       0.80430000
H       -3.44940000      -1.14340000      -0.50830000
H       -5.31360000       0.03840000       0.10230000
H       -0.12870000      -1.66480000      -1.50160000
