23
Properties=species:S:1:pos:R:3 gdb_95503=T pbc="F F F"
C       -0.07710000       1.54810000       0.03980000
C        0.00550000       0.01510000       0.00290000
C        0.64310000      -0.44440000      -1.32190000
C        0.61490000      -1.96250000      -1.59590000
C        1.58270000      -2.76670000      -0.76050000
C        1.61300000      -2.77700000       0.57040000
C        0.66600000      -2.01780000       1.47280000
O        0.97230000      -2.24870000       2.84650000
C        0.71110000      -0.49790000       1.27040000
H        0.92380000       1.99540000       0.02290000
H       -0.62900000       1.93730000      -0.82230000
H       -0.58000000       1.89680000       0.94770000
H       -1.02500000      -0.37320000       0.02090000
H        0.11060000       0.05780000      -2.13960000
H        1.68200000      -0.09170000      -1.36790000
H       -0.41110000      -2.32940000      -1.44140000
H        0.83370000      -2.12980000      -2.65530000
H        2.31820000      -3.35910000      -1.29950000
H        2.37400000      -3.35680000       1.08940000
H       -0.36840000      -2.34960000       1.26600000
H        0.94790000      -3.19900000       2.99780000
H        1.75660000      -0.16600000       1.28440000
H        0.22530000      -0.05320000       2.14660000
