18
Properties=species:S:1:pos:R:3 gdb_112470=T pbc="F F F"
O        0.00240000       1.43810000       0.05920000
C        0.03580000       0.02130000      -0.00800000
C       -1.40590000      -0.48670000       0.03090000
C       -1.44460000      -2.01630000      -0.13640000
C       -2.80260000      -2.64700000       0.15090000
O       -3.21830000      -3.64230000      -0.40510000
N       -3.50740000      -2.02570000       1.15920000
C       -3.10590000      -0.83630000       1.78100000
C       -2.11640000      -0.08450000       1.29900000
H        0.90690000       1.76170000       0.09640000
H        0.52070000      -0.32320000      -0.93530000
H        0.59500000      -0.40670000       0.83990000
H       -1.92180000      -0.02000000      -0.82320000
H       -1.14190000      -2.33260000      -1.13660000
H       -0.74190000      -2.47450000       0.57560000
H       -4.37070000      -2.47310000       1.42690000
H       -3.66970000      -0.57890000       2.67000000
H       -1.83420000       0.83810000       1.78820000
