15
Properties=species:S:1:pos:R:3 gdb_33437=T pbc="F F F"
C       -0.07970000      -1.21020000      -0.11200000
C       -0.04330000      -0.01200000      -0.03630000
C       -0.04210000       1.43800000       0.04010000
C       -0.99640000       1.97230000      -0.93560000
N       -1.76860000       2.38170000      -1.69160000
C        0.04140000       2.14720000       1.43710000
C        1.49090000       1.62570000       1.46720000
N        1.36910000       2.13900000       0.01340000
C        0.63960000       3.33700000       0.66310000
H       -0.10700000      -2.27010000      -0.18370000
H       -0.72880000       2.12820000       2.21310000
H        2.21430000       2.19810000       2.04920000
H        1.66330000       0.55270000       1.54540000
H        0.00400000       3.89780000      -0.02290000
H        1.32100000       3.99260000       1.20640000
