19
Properties=species:S:1:pos:R:3 gdb_90188=T pbc="F F F"
C       -0.06090000       1.50950000      -0.10740000
C        0.01450000       0.00410000       0.07680000
O        0.84090000      -0.58840000      -0.99480000
C        1.77080000      -1.25480000      -0.19820000
C        3.01170000      -2.15610000      -0.18730000
C        2.64590000      -1.87460000       1.32390000
C        2.23760000      -0.40410000       1.01620000
C        0.73550000      -0.48720000       1.37910000
C        1.11910000      -1.94450000       1.03300000
H        0.93030000       1.96510000      -0.02520000
H       -0.46980000       1.75660000      -1.09100000
H       -0.71060000       1.95290000       0.65500000
H       -0.98520000      -0.44170000      -0.00260000
H        2.88690000      -3.18460000      -0.53870000
H        3.94810000      -1.72490000      -0.55360000
H        3.17180000      -2.24600000       2.20050000
H        2.89640000       0.46180000       0.95550000
H        0.29990000      -0.16250000       2.32610000
H        0.49160000      -2.83490000       0.98740000
