21
Properties=species:S:1:pos:R:3 gdb_83540=T pbc="F F F"
C       -0.11580000       1.65970000      -0.00220000
C        0.00390000       0.14350000       0.01200000
C        1.10730000      -0.60130000      -0.81720000
C        2.42350000      -0.00850000      -0.26710000
C        2.09120000      -0.02030000       1.26560000
C        0.66730000      -0.61700000       1.21250000
C        0.87790000      -1.73700000       0.18690000
C        0.26010000      -3.04630000       0.04280000
O        1.66480000      -2.89670000       0.34840000
H        0.83090000       2.16380000       0.20690000
H       -0.46710000       2.00920000      -0.97920000
H       -0.84110000       1.99580000       0.74690000
H       -0.97220000      -0.30390000      -0.20310000
H        1.02190000      -0.74740000      -1.89410000
H        3.27820000      -0.64480000      -0.50880000
H        2.62780000       0.99330000      -0.65330000
H        2.77120000      -0.66290000       1.83000000
H        2.11400000       0.97500000       1.71650000
H        0.14420000      -0.77880000       2.15510000
H       -0.34490000      -3.46000000       0.84880000
H        0.04450000      -3.44610000      -0.94750000
