19
Properties=species:S:1:pos:R:3 gdb_55448=T pbc="F F F"
N       -0.00960000       1.41200000       0.17100000
C        0.06300000       0.03150000       0.01240000
O        1.13120000      -0.55080000      -0.04610000
N       -1.15070000      -0.63130000      -0.11670000
C       -1.12280000      -2.10030000      -0.09070000
C       -2.24920000      -2.69160000      -0.93820000
C       -3.61640000      -2.15270000      -0.49210000
C       -3.55040000      -0.65460000      -0.37150000
C       -2.39160000      -0.00060000      -0.23360000
H        0.89800000       1.78810000       0.40340000
H       -0.75240000       1.78150000       0.74490000
H       -0.14020000      -2.40950000      -0.44470000
H       -1.22290000      -2.44020000       0.94980000
H       -2.08250000      -2.43100000      -1.98950000
H       -2.21060000      -3.78270000      -0.86340000
H       -4.38970000      -2.43820000      -1.21500000
H       -3.91450000      -2.61380000       0.46090000
H       -4.46150000      -0.07270000      -0.45080000
H       -2.36000000       1.08020000      -0.24700000
