18
Properties=species:S:1:pos:R:3 gdb_58833=T pbc="F F F"
C       -0.03330000       1.52110000       0.24540000
C       -0.04460000       0.01030000      -0.00470000
O        0.54860000      -0.70780000       1.07550000
C       -1.44060000      -0.52080000      -0.14920000
N       -2.32240000      -0.77950000       1.00900000
C       -1.99160000      -1.87540000       0.06090000
C       -2.89530000      -1.70260000      -1.21340000
O       -3.71980000      -0.54830000      -1.05330000
C       -2.35730000      -0.36010000      -1.42600000
H        0.99430000       1.89140000       0.33920000
H       -0.50360000       2.05720000      -0.58480000
H       -0.57940000       1.75890000       1.16260000
H        0.50460000      -0.19920000      -0.93900000
H        1.37880000      -0.27690000       1.30070000
H       -1.68100000      -0.90770000       1.79460000
H       -1.49390000      -2.78130000       0.37860000
H       -3.21550000      -2.47020000      -1.90710000
H       -2.14160000       0.20210000      -2.32720000
