18
Properties=species:S:1:pos:R:3 gdb_41049=T pbc="F F F"
C        0.00180000       1.53800000       0.19190000
C        1.52520000       1.60670000      -0.18370000
C        1.45080000       0.15580000      -0.71660000
C        0.86580000      -0.42470000      -2.02130000
C       -0.36720000      -0.78340000      -1.26330000
N        0.79530000      -1.75110000      -1.34610000
C        1.64280000      -1.28020000      -0.15160000
C        0.65190000      -1.00070000       0.99190000
C        0.04110000       0.00510000      -0.02700000
H       -0.27370000       1.87960000       1.19250000
H       -0.63830000       2.04800000      -0.53250000
H        1.82000000       2.36620000      -0.91180000
H        2.18110000       1.70320000       0.68580000
H        1.07860000      -0.31380000      -3.07900000
H       -1.32980000      -1.15610000      -1.59790000
H        2.56430000      -1.85700000      -0.05370000
H        0.03460000      -1.82450000       1.36040000
H        1.13360000      -0.49240000       1.83270000
