19
Properties=species:S:1:pos:R:3 gdb_59853=T pbc="F F F"
C        0.01590000       1.38740000      -0.01280000
C       -0.08860000      -0.13290000       0.03200000
C       -1.51600000      -0.65020000      -0.05250000
O        0.60960000      -0.69850000      -1.11700000
C        1.92430000      -0.85990000      -1.01060000
O        2.60360000      -0.57860000      -0.05140000
C        2.52900000      -1.47790000      -2.29710000
C        4.01660000      -1.71890000      -2.22670000
O        1.83940000      -1.72660000      -3.25160000
H        1.05910000       1.70450000       0.05030000
H       -0.42090000       1.77570000      -0.93800000
H       -0.52530000       1.82170000       0.83340000
H        0.41000000      -0.50940000       0.92990000
H       -1.99880000      -0.30510000      -0.97160000
H       -1.53470000      -1.74300000      -0.04280000
H       -2.09520000      -0.28600000       0.80110000
H        4.53990000      -0.77740000      -2.03150000
H        4.25170000      -2.37640000      -1.38370000
H        4.36000000      -2.15940000      -3.16270000
