18
Properties=species:S:1:pos:R:3 gdb_5903=T pbc="F F F"
C        0.05110000       1.56830000       0.00280000
C        0.04500000       0.02440000       0.02160000
C        0.82160000      -0.49540000       1.25070000
C       -1.42760000      -0.50830000       0.04990000
C       -2.18990000      -0.08680000       1.21840000
C       -2.81650000       0.26250000       2.18350000
C        0.67120000      -0.48260000      -1.20350000
C        1.17610000      -0.90290000      -2.21050000
H        1.07650000       1.94620000      -0.02750000
H       -0.47760000       1.95050000      -0.87520000
H       -0.44010000       1.95520000       0.89980000
H        0.34410000      -0.14560000       2.17010000
H        0.84390000      -1.58890000       1.26500000
H        1.85360000      -0.13520000       1.23120000
H       -1.93560000      -0.17240000      -0.86150000
H       -1.40140000      -1.60310000       0.00300000
H       -3.37880000       0.56530000       3.03180000
H        1.62910000      -1.27000000      -3.09810000
