16
Properties=species:S:1:pos:R:3 gdb_44151=T pbc="F F F"
O        0.00230000       0.11100000       0.50170000
C        0.09620000       1.25920000       0.21930000
O       -0.93390000       2.12350000      -0.16050000
C        0.03390000       3.17000000      -0.43340000
C        0.68570000       3.56110000       0.84280000
C        1.16290000       2.30770000       0.07150000
N        1.60590000       4.65200000       0.76870000
C        1.24100000       5.85380000       1.52150000
C        2.33850000       4.96900000       1.99600000
H       -0.07870000       3.75400000      -1.33450000
H        0.12060000       3.42060000       1.76970000
H        2.18700000       2.19120000      -0.24760000
H        1.46390000       6.79570000       1.02970000
H        0.30780000       5.83830000       2.08090000
H        2.14410000       4.35720000       2.87440000
H        3.37650000       5.25490000       1.85750000
