12
Properties=species:S:1:pos:R:3 gdb_16723=T pbc="F F F"
N        0.08220000      -1.08670000       0.07430000
C        0.00470000       0.06550000       0.04360000
C       -0.08340000       1.49450000       0.00590000
N       -1.17040000       2.16250000      -0.00430000
C       -0.77660000       3.54800000       0.00460000
C        0.02050000       3.99910000       1.21460000
C        0.75080000       3.53580000      -0.00500000
O        1.10400000       2.15870000      -0.03590000
H       -1.41270000       4.23940000      -0.53240000
H        0.04140000       5.06690000       1.40040000
H        0.01450000       3.37110000       2.09910000
H        1.42080000       4.15450000      -0.58600000
