17
Properties=species:S:1:pos:R:3 gdb_94283=T pbc="F F F"
O        0.11830000       1.25280000      -0.36150000
C        0.13040000      -0.08030000       0.08710000
C       -0.00490000      -0.35900000       1.60200000
O       -1.19280000      -1.15030000       1.37330000
C       -1.23990000      -0.76720000       0.00500000
C       -2.53280000      -0.15710000      -0.59660000
C       -2.00940000      -0.52540000      -2.00310000
C       -1.79140000      -1.73620000      -1.06240000
O       -3.14590000      -1.50690000      -0.50460000
H        1.01490000       1.59990000      -0.32480000
H        0.93220000      -0.66210000      -0.38560000
H        0.78750000      -0.94200000       2.08270000
H       -0.21660000       0.54530000       2.18560000
H       -3.12540000       0.69440000      -0.26630000
H       -2.79580000      -0.68230000      -2.74080000
H       -1.14370000       0.01470000      -2.39140000
H       -1.50440000      -2.76300000      -1.28950000
