17
Properties=species:S:1:pos:R:3 gdb_29582=T pbc="F F F"
N        0.16180000       1.32730000       0.46110000
C        0.05960000      -0.03280000       0.14000000
C       -1.05920000      -0.80470000       0.04100000
O       -0.71440000      -2.10940000      -0.19980000
C        0.63230000      -2.15470000      -0.26070000
C        1.18110000      -0.92360000      -0.05540000
C        2.62230000      -0.56660000      -0.06080000
C        3.20870000       0.20820000       1.06830000
N        3.55670000      -1.20950000       0.88970000
H        0.94690000       1.77500000       0.00700000
H       -0.68420000       1.84730000       0.26930000
H       -2.11320000      -0.60160000       0.12440000
H        1.06720000      -3.12160000      -0.45700000
H        3.07150000      -0.42800000      -1.04320000
H        4.02190000       0.90400000       0.88070000
H        2.54600000       0.48670000       1.88220000
H        3.01120000      -1.76550000       1.54470000
