17
Properties=species:S:1:pos:R:3 gdb_37366=T pbc="F F F"
C       -0.00160000       1.53640000      -0.01130000
C        1.51130000       1.81520000      -0.00500000
O        2.02200000       1.44120000       1.28300000
C        1.81750000       0.07570000       1.59500000
O        0.52600000      -0.41610000       1.28810000
C        0.04830000      -0.00100000       0.00000000
C        1.11270000      -0.30880000      -1.05810000
O        1.13770000       0.61290000      -2.15310000
C        2.03590000       0.83730000      -1.06130000
H       -0.48290000       1.92660000       0.88550000
H       -0.48820000       1.92590000      -0.90530000
H        1.79780000       2.85710000      -0.15530000
H        2.58120000      -0.54090000       1.09850000
H        1.93030000      -0.01220000       2.67800000
H       -0.90900000      -0.50340000      -0.14600000
H        1.41980000      -1.32720000      -1.27510000
H        3.09580000       0.75340000      -1.28080000
