19
Properties=species:S:1:pos:R:3 gdb_74958=T pbc="F F F"
C       -0.12540000       1.49660000       0.04480000
C        0.03140000       0.01580000      -0.03830000
C        0.05470000      -0.79930000      -1.10170000
C        0.05270000      -2.21850000      -0.55920000
C        0.92310000      -2.06530000       0.69490000
C        0.03630000      -0.89180000       1.19530000
O        0.27760000      -0.30770000       2.44490000
C       -1.34020000      -1.62080000       1.17570000
O       -1.26480000      -2.46780000       0.02960000
H        0.70190000       1.96030000       0.59640000
H       -0.16730000       1.95000000      -0.94890000
H       -1.04010000       1.76580000       0.58710000
H       -0.05950000      -0.52570000      -2.14340000
H        0.26140000      -3.02990000      -1.25350000
H        0.90130000      -2.94110000       1.34880000
H        1.94990000      -1.76020000       0.48300000
H        1.16450000       0.06660000       2.43930000
H       -1.46310000      -2.21860000       2.08710000
H       -2.18080000      -0.92270000       1.08850000
