20
Properties=species:S:1:pos:R:3 gdb_110797=T pbc="F F F"
C        0.11670000       1.34640000      -0.22670000
C        0.00550000      -0.09060000       0.29590000
C       -1.38970000      -0.65440000       0.12820000
C       -1.89020000      -1.32490000      -1.10450000
O       -0.82710000      -2.06570000      -1.75380000
C       -0.73950000      -2.91020000      -0.63020000
N       -0.07190000      -3.95120000      -0.45740000
C        0.79730000      -4.42470000      -1.52510000
C       -1.75010000      -2.14880000       0.16030000
H        1.12700000       1.73970000      -0.08000000
H       -0.11060000       1.39350000      -1.29660000
H       -0.57920000       2.01550000       0.29180000
H        0.72160000      -0.72990000      -0.22810000
H        0.27430000      -0.12410000       1.35850000
H       -2.17090000      -0.07000000       0.61500000
H       -2.74980000      -1.07030000      -1.71000000
H        1.83460000      -4.41620000      -1.17190000
H        0.54740000      -5.46660000      -1.75240000
H        0.73550000      -3.83620000      -2.44780000
H       -2.48320000      -2.56970000       0.83270000
