14
Properties=species:S:1:pos:R:3 gdb_69228=T pbc="F F F"
C       -0.08940000       1.53810000       0.03280000
C        0.14560000       0.06020000       0.01220000
O       -0.70440000      -0.78880000       0.80650000
C        0.70520000      -0.78660000       1.07880000
C        1.39730000      -1.96360000       0.41640000
O        2.05260000      -2.83320000       0.92530000
N        1.13610000      -1.82330000      -0.94840000
C        0.47960000      -0.64530000      -1.30010000
O        0.24550000      -0.26870000      -2.41800000
H        0.80760000       2.07490000      -0.28950000
H       -0.89910000       1.79580000      -0.65540000
H       -0.35960000       1.86370000       1.03940000
H        1.02390000      -0.44090000       2.05560000
H        1.41930000      -2.51330000      -1.62980000
