17
Properties=species:S:1:pos:R:3 gdb_61717=T pbc="F F F"
C        1.45090000      -1.22950000      -0.68520000
C        0.02420000      -0.76680000      -0.56870000
N       -0.55510000      -0.79590000       0.71330000
C       -0.03720000      -1.20420000       1.91710000
O        1.07030000      -1.64490000       2.11990000
N       -0.75900000      -0.33610000      -1.47720000
C       -0.30050000      -0.25600000      -2.86420000
C        0.59480000       0.87380000      -3.11580000
C        1.33260000       1.80290000      -3.30710000
H        2.09330000      -0.63260000      -0.03370000
H        1.54880000      -2.26120000      -0.33970000
H        1.80590000      -1.14110000      -1.71050000
H       -1.50790000      -0.45550000       0.71030000
H       -0.78910000      -1.07760000       2.72040000
H        0.18780000      -1.18530000      -3.19340000
H       -1.19270000      -0.14540000      -3.49060000
H        1.98090000       2.62570000      -3.48150000
