19
Properties=species:S:1:pos:R:3 gdb_46033=T pbc="F F F"
N       -0.44550000       0.88930000       0.79240000
C       -0.19360000      -0.18930000       0.18850000
C       -1.07240000      -0.85480000      -0.84950000
C       -0.54380000      -2.30160000      -0.89530000
C        0.93100000      -2.08050000      -0.49980000
O        0.93150000      -0.94560000       0.37980000
C       -1.26280000      -3.20970000       0.08020000
C       -2.42100000      -4.02390000      -0.35780000
N       -1.13570000      -4.67170000      -0.02780000
H        0.31670000       1.12940000       1.42900000
H       -2.12730000      -0.77080000      -0.58620000
H       -0.92800000      -0.35230000      -1.81220000
H       -0.61420000      -2.73200000      -1.90000000
H        1.36740000      -2.92430000       0.04010000
H        1.55570000      -1.85620000      -1.37360000
H       -1.24970000      -2.85870000       1.11150000
H       -3.23300000      -4.23950000       0.33030000
H       -2.71890000      -3.96280000      -1.40200000
H       -0.64870000      -4.91230000      -0.88920000
