23
Properties=species:S:1:pos:R:3 gdb_113875=T pbc="F F F"
C       -0.03200000       1.44720000      -0.70690000
C       -0.00470000       0.15890000       0.12470000
C       -1.36730000      -0.50080000       0.21010000
C       -1.84430000      -1.45680000      -0.86070000
C       -1.57550000      -1.96260000       0.53440000
C       -0.41990000      -2.91640000       0.81440000
C       -0.78700000      -4.31760000       0.61940000
C       -1.11160000      -5.46620000       0.46050000
C       -1.49570000      -6.85750000       0.26660000
H        0.95770000       1.91240000      -0.75280000
H       -0.35960000       1.24500000      -1.73200000
H       -0.72500000       2.17900000      -0.27720000
H        0.72360000      -0.53380000      -0.31220000
H        0.35880000       0.38620000       1.13590000
H       -2.13280000       0.15920000       0.61450000
H       -2.86860000      -1.39720000      -1.21190000
H       -1.12950000      -1.73270000      -1.63110000
H       -2.45500000      -2.18520000       1.13230000
H        0.43330000      -2.67280000       0.17020000
H       -0.06680000      -2.77280000       1.84510000
H       -0.81490000      -7.36780000      -0.42410000
H       -1.48290000      -7.41220000       1.21160000
H       -2.50660000      -6.93790000      -0.14870000
