17
Properties=species:S:1:pos:R:3 gdb_28578=T pbc="F F F"
C        0.15670000       1.49000000       0.01240000
C        0.02420000       0.00510000      -0.04450000
N       -0.14880000      -0.71680000      -1.13040000
C       -0.21690000      -2.02500000      -0.70870000
C       -0.08580000      -2.10390000       0.65370000
N        0.07320000      -0.79370000       1.06730000
C       -0.09280000      -3.24410000       1.58660000
C       -1.22370000      -4.19190000       1.67270000
O       -0.01970000      -4.53810000       0.99070000
H        1.12020000       1.79980000       0.43400000
H        0.08350000       1.88250000      -1.00240000
H       -0.63260000       1.95000000       0.61850000
H       -0.33780000      -2.84290000      -1.40140000
H        0.19080000      -0.48350000       2.01770000
H        0.52490000      -3.12700000       2.48030000
H       -1.40850000      -4.73380000       2.60000000
H       -2.09050000      -4.02800000       1.03530000
