16
Properties=species:S:1:pos:R:3 gdb_4554=T pbc="F F F"
C       -0.00800000       1.46110000       0.02280000
N       -0.03400000       0.01810000      -0.00110000
C       -1.15900000      -0.80770000       0.02050000
C       -0.74650000      -2.09320000      -0.01470000
C       -1.51320000      -3.36810000      -0.01250000
N        0.64880000      -2.05360000      -0.05900000
C        1.12450000      -0.74920000      -0.05090000
O        2.27980000      -0.36330000      -0.08020000
H        1.04110000       1.76120000      -0.00300000
H       -0.52440000       1.88430000      -0.84610000
H       -0.47200000       1.85360000       0.93450000
H       -2.15720000      -0.40530000       0.05860000
H       -1.31930000      -3.96300000      -0.91380000
H       -1.26060000      -3.99510000       0.85170000
H       -2.58490000      -3.16020000       0.02690000
H        1.27050000      -2.84220000      -0.08890000
