17
Properties=species:S:1:pos:R:3 gdb_34323=T pbc="F F F"
N       -0.22040000      -1.22630000       0.09290000
C       -0.11970000      -0.07430000       0.05200000
C       -0.04370000       1.38990000      -0.01780000
C       -0.16010000       2.04380000       1.42460000
C        1.41130000       2.13050000       1.47420000
C        1.35070000       1.97700000      -0.02670000
C        1.60800000       2.57120000      -1.18340000
C        0.44420000       2.32980000      -2.13250000
N       -0.66320000       1.95000000      -1.21080000
H       -0.62380000       3.02670000       1.33420000
H       -0.65040000       1.45100000       2.19860000
H        1.86380000       3.04270000       1.86520000
H        1.84110000       1.26550000       1.98790000
H        2.43050000       3.23420000      -1.41940000
H        0.18120000       3.24430000      -2.67790000
H        0.66590000       1.55610000      -2.88670000
H       -1.33670000       1.32900000      -1.64270000
