19
Properties=species:S:1:pos:R:3 gdb_68572=T pbc="F F F"
C       -0.02540000       1.57080000       0.05410000
C        0.01200000       0.05710000      -0.02040000
C        0.66250000      -0.66180000      -1.25640000
C       -0.40170000      -1.79410000      -1.09340000
C        0.03310000      -2.68900000       0.05600000
C        0.50260000      -2.11510000       1.16470000
C        0.54140000      -0.60940000       1.27740000
C       -1.26840000      -0.69140000      -0.45100000
O       -2.43400000      -0.42280000      -0.43520000
H        0.97330000       1.98130000       0.24170000
H       -0.40300000       2.00340000      -0.87720000
H       -0.68280000       1.90170000       0.86500000
H        0.52210000      -0.08640000      -2.17520000
H        1.70490000      -0.96930000      -1.15180000
H       -0.77350000      -2.33080000      -1.96500000
H       -0.05510000      -3.76510000      -0.04980000
H        0.84610000      -2.70450000       2.00950000
H        1.56000000      -0.25350000       1.49190000
H       -0.07530000      -0.27980000       2.12580000
