19
Properties=species:S:1:pos:R:3 gdb_41828=T pbc="F F F"
C        0.40470000       1.68720000       0.27340000
O        1.40730000       1.96780000      -0.69630000
C        1.91550000       0.73100000      -1.13860000
C        3.11750000       0.27800000      -0.30200000
O        2.81310000       0.10390000       1.06810000
C        1.98410000      -1.01600000       1.35040000
C        0.48440000      -0.68500000       1.32020000
C        0.09350000       0.17310000       0.10460000
O        0.84410000      -0.18960000      -1.05840000
H        0.76650000       1.91310000       1.28200000
H       -0.46570000       2.31510000       0.05670000
H        2.20740000       0.82910000      -2.19170000
H        3.52100000      -0.65180000      -0.73560000
H        3.89160000       1.05050000      -0.35260000
H        2.19700000      -1.82310000       0.63690000
H        2.26440000      -1.36860000       2.34860000
H       -0.07050000      -1.63050000       1.30980000
H        0.18870000      -0.15460000       2.23330000
H       -0.96130000       0.01570000      -0.13720000
