19
Properties=species:S:1:pos:R:3 gdb_105099=T pbc="F F F"
O        0.06140000       1.51950000       0.41900000
C        0.04680000       0.13710000       0.69570000
C       -1.19840000      -0.55340000       0.15360000
C       -2.43560000       0.21830000      -0.01810000
O       -1.57960000      -0.05070000      -1.14960000
C       -1.21360000      -2.04530000       0.30360000
C       -2.09700000      -2.90250000      -0.58900000
C       -0.60880000      -2.89790000      -0.79390000
O       -0.02050000      -2.32350000      -1.91910000
H       -0.09600000       1.60040000      -0.53020000
H        0.92650000      -0.37430000       0.27430000
H        0.08590000       0.02440000       1.78490000
H       -3.38870000      -0.30500000      -0.03400000
H       -2.45760000       1.26180000       0.28250000
H       -1.06580000      -2.37860000       1.32780000
H       -2.57730000      -3.77550000      -0.16070000
H       -2.68780000      -2.37910000      -1.33460000
H       -0.04930000      -3.77840000      -0.49580000
H       -0.56520000      -1.57250000      -2.18580000
