16
Properties=species:S:1:pos:R:3 gdb_49404=T pbc="F F F"
O       -0.03040000      -0.01210000      -0.21950000
C        0.03040000       1.19710000      -0.12860000
N        1.17320000       1.91040000       0.02060000
C        2.50630000       1.39740000       0.10070000
C        3.47660000       2.39830000      -0.50760000
C        3.34420000       2.28990000       1.00340000
C        2.55150000       3.61780000       1.02940000
C        2.68380000       3.72630000      -0.48190000
C        1.35360000       3.32400000       0.13800000
H       -0.85960000       1.85630000      -0.15890000
H        2.63370000       0.32760000       0.03520000
H        4.29380000       2.13680000      -1.16430000
H        4.03870000       1.92750000       1.74760000
H        2.57450000       4.38050000       1.79450000
H        2.82980000       4.58920000      -1.11570000
H        0.48060000       3.96130000       0.10730000
