17
Properties=species:S:1:pos:R:3 gdb_83624=T pbc="F F F"
C       -0.12040000       1.55460000       0.10240000
C       -0.02340000       0.02700000      -0.02230000
C        0.81340000      -0.45690000      -1.21330000
O        1.51210000       0.44480000      -2.14610000
C        2.78790000      -0.21530000      -1.86150000
C        2.14470000      -0.79280000      -0.63150000
C        2.17410000      -0.85260000       0.69970000
C        0.79210000      -0.53840000       1.19040000
O        0.39380000      -0.57510000       2.32760000
H        0.86920000       2.01650000       0.05380000
H       -0.72360000       1.97080000      -0.70860000
H       -0.58290000       1.81470000       1.05800000
H       -1.02880000      -0.40310000      -0.01380000
H        0.31510000      -1.24610000      -1.78910000
H        3.05060000      -0.93040000      -2.65140000
H        3.60890000       0.49200000      -1.70950000
H        3.02170000      -0.93710000       1.36690000
