17
Properties=species:S:1:pos:R:3 gdb_68152=T pbc="F F F"
O       -0.07600000       1.39450000       0.00080000
C       -0.03120000       0.00960000       0.02020000
C        0.17760000      -0.86170000       1.30700000
C       -0.42910000      -1.92880000       0.35200000
C       -1.33510000      -0.79610000      -0.21090000
O        0.58340000      -2.09070000      -0.65810000
C        0.91570000      -0.72090000      -0.95790000
C       -0.95180000      -3.24910000       0.82430000
O       -1.83680000      -3.35770000       1.63480000
H        0.81210000       1.73840000       0.14950000
H        1.19360000      -1.04650000       1.66370000
H       -0.49730000      -0.58830000       2.11770000
H       -2.13470000      -0.52050000       0.47590000
H       -1.69910000      -0.91580000      -1.23320000
H        0.70150000      -0.48960000      -2.00740000
H        1.97820000      -0.53310000      -0.75540000
H       -0.45110000      -4.12960000       0.36650000
