21
Properties=species:S:1:pos:R:3 gdb_90499=T pbc="F F F"
C        0.19510000       1.17450000      -0.92460000
C        0.58740000      -0.27930000      -0.68750000
C        1.91270000      -0.88000000      -1.27290000
C        2.24900000      -1.42740000       0.12250000
C        2.39670000      -0.31390000       1.14400000
C        3.04610000       0.99520000       0.89500000
O        3.58290000       1.64310000       1.76410000
C        1.00270000      -0.78290000       0.70900000
C        0.02880000      -1.28600000       1.73840000
H        0.97780000       1.87790000      -0.62920000
H       -0.02190000       1.34640000      -1.98470000
H       -0.70770000       1.43020000      -0.35890000
H       -0.24250000      -0.91420000      -1.01980000
H        1.72670000      -1.66960000      -2.00370000
H        2.62680000      -0.17710000      -1.71070000
H        2.67380000      -2.40350000       0.32800000
H        2.62960000      -0.67140000       2.14420000
H        3.04580000       1.35870000      -0.15310000
H       -0.53020000      -0.46080000       2.19490000
H       -0.69840000      -1.96950000       1.28470000
H        0.53870000      -1.82360000       2.54390000
