17
Properties=species:S:1:pos:R:3 gdb_61488=T pbc="F F F"
O        0.30250000       1.51470000       0.14020000
C        0.17730000       0.10370000       0.09240000
C        0.74190000      -0.48960000      -1.21870000
C       -0.08170000      -0.08420000      -2.45640000
O       -0.16710000       1.34390000      -2.61030000
C        0.43620000      -0.71200000      -3.67130000
C        0.90510000      -1.20460000      -4.66220000
C        0.86970000      -0.46770000       1.24810000
C        1.44070000      -0.96920000       2.17810000
H       -0.02590000       1.83510000      -0.71290000
H       -0.88700000      -0.18920000       0.16080000
H        1.78000000      -0.16140000      -1.33930000
H        0.74740000      -1.58200000      -1.15090000
H       -1.12200000      -0.39830000      -2.30390000
H        0.67340000       1.64610000      -2.97530000
H        1.30210000      -1.64610000      -5.54320000
H        1.93960000      -1.40060000       3.01050000
