21
Properties=species:S:1:pos:R:3 gdb_40429=T pbc="F F F"
C       -0.10540000       1.47210000      -0.13160000
C        1.27620000       0.89190000       0.04750000
C        0.06790000      -0.01480000       0.07390000
C       -0.36890000      -0.72510000       1.31670000
C       -0.39880000      -2.23690000       1.35000000
C       -1.69080000      -1.46190000       1.42030000
C       -2.21230000      -1.18290000       2.81560000
O       -1.07430000      -0.76860000       3.56790000
C       -0.18120000      -0.09070000       2.69080000
H       -0.51450000       2.06620000       0.67770000
H       -0.39760000       1.81470000      -1.11820000
H        1.93750000       0.84620000      -0.81080000
H        1.78590000       1.08900000       0.98470000
H       -0.07280000      -0.61490000      -0.82150000
H       -0.17770000      -2.75280000       0.42170000
H       -0.05570000      -2.74480000       2.24650000
H       -2.38810000      -1.48820000       0.59090000
H       -2.98130000      -0.39330000       2.78440000
H       -2.63460000      -2.05470000       3.32720000
H        0.82650000      -0.21140000       3.10300000
H       -0.41100000       0.98660000       2.65250000
