14
Properties=species:S:1:pos:R:3 gdb_44302=T pbc="F F F"
O       -0.04100000      -0.03790000      -0.21920000
C       -0.01220000       1.14210000      -0.04290000
O       -1.15010000       1.89880000       0.13250000
C       -0.74840000       3.25240000       0.36090000
C        0.01880000       3.48880000       1.65880000
C        1.28990000       2.73560000       1.45840000
C        1.17050000       2.09610000       0.05760000
C        0.62040000       3.48820000      -0.31230000
N        1.18760000       4.14510000       0.96690000
H       -1.57460000       3.92140000       0.13400000
H       -0.34170000       3.81970000       2.62410000
H        1.94950000       2.44950000       2.26720000
H        2.09340000       1.74070000      -0.39140000
H        0.74610000       3.95620000      -1.28480000
