10
Properties=species:S:1:pos:R:3 gdb_489=T pbc="F F F"
N        0.00010000      -1.16420000      -0.00410000
C       -0.02180000      -0.00940000       0.00210000
C       -0.02200000       1.45090000       0.00980000
C        1.42160000       2.01430000      -0.00050000
C        1.42140000       3.47460000       0.00740000
N        1.39940000       4.62940000       0.01370000
H       -0.57200000       1.81520000      -0.86330000
H       -0.55590000       1.80600000       0.89660000
H        1.97170000       1.64990000       0.87250000
H        1.95550000       1.65930000      -0.88740000
