16
Properties=species:S:1:pos:R:3 gdb_11389=T pbc="F F F"
O       -0.08460000       1.46650000       0.03000000
C        0.03830000       0.05580000      -0.05120000
C       -1.37000000      -0.53840000       0.03110000
C       -1.39860000      -2.07840000      -0.02170000
C       -2.17280000      -2.52340000       1.23310000
O       -2.44840000      -3.66270000       1.52730000
C       -2.49780000      -1.29290000       1.99130000
C       -2.05930000      -0.21150000       1.33750000
H        0.79630000       1.85150000       0.01620000
H        0.50780000      -0.25360000      -0.99800000
H        0.65180000      -0.34420000       0.77220000
H       -1.94380000      -0.09840000      -0.79520000
H       -1.88330000      -2.47540000      -0.91740000
H       -0.39470000      -2.51650000       0.01370000
H       -3.02250000      -1.31760000       2.93800000
H       -2.15750000       0.81590000       1.66780000
