17
Properties=species:S:1:pos:R:3 gdb_123576=T pbc="F F F"
C       -0.01110000       1.48590000       0.07140000
C        1.30610000       0.75580000       0.03750000
C        2.01620000       0.43520000       1.36670000
C        1.02120000      -0.46810000       2.04660000
N        0.96830000      -1.06410000       3.22720000
N       -0.19780000      -1.75240000       3.16640000
C       -0.87260000      -1.59700000       1.98780000
C       -0.09450000      -0.75460000       1.23020000
C       -0.01210000      -0.02660000      -0.05540000
H       -0.35350000       1.91340000       1.00880000
H       -0.27730000       2.06190000      -0.80920000
H        1.92110000       0.88220000      -0.84580000
H        2.97000000      -0.07500000       1.18740000
H        2.24150000       1.33730000       1.94610000
H       -0.46280000      -2.32400000       3.95000000
H       -1.81490000      -2.09200000       1.81410000
H       -0.34010000      -0.47770000      -0.98460000
