17
Properties=species:S:1:pos:R:3 gdb_72006=T pbc="F F F"
O       -0.10140000       1.33310000      -0.01430000
C        0.04180000      -0.03300000      -0.02250000
C        0.94120000      -0.88950000      -0.91150000
C        0.04030000      -2.07700000      -0.45640000
C        0.38380000      -2.26920000       1.04540000
C       -0.25700000      -0.90490000       1.25830000
C       -0.71600000      -0.29010000       2.50060000
O       -0.52890000      -0.76300000       3.60070000
C       -1.06420000      -1.01470000      -0.05760000
H        0.66240000       1.72400000       0.42600000
H        0.78440000      -0.63780000      -1.96380000
H        2.01220000      -0.95280000      -0.69030000
H       -0.12170000      -2.92470000      -1.11680000
H       -0.21060000      -3.05600000       1.51640000
H        1.43900000      -2.40180000       1.30540000
H       -1.26610000       0.66810000       2.36930000
H       -2.12860000      -0.92590000      -0.21930000
