14
Properties=species:S:1:pos:R:3 gdb_2918=T pbc="F F F"
C       -0.04250000       1.43940000       0.07150000
N       -0.01100000      -0.00930000       0.16380000
C       -1.08540000      -0.66680000       0.07520000
O       -2.34680000      -0.13040000      -0.10890000
C       -3.31000000      -1.18280000      -0.16030000
C       -2.51410000      -2.44470000       0.01230000
C       -1.22740000      -2.12570000       0.14730000
H        0.60170000       1.75890000      -0.75640000
H       -1.04100000       1.86570000      -0.07610000
H        0.38960000       1.86540000       0.98500000
H       -4.05210000      -1.03370000       0.63640000
H       -3.84110000      -1.14110000      -1.12140000
H       -2.95930000      -3.43040000       0.01910000
H       -0.37880000      -2.77790000       0.28890000
