21
Properties=species:S:1:pos:R:3 gdb_62470=T pbc="F F F"
C       -0.26410000       1.45580000       0.07650000
C       -0.04720000      -0.05890000       0.02280000
C       -1.32550000      -0.79670000      -0.38480000
C        1.17080000      -0.45490000      -0.84660000
O        1.41270000      -0.32950000      -2.01250000
C        1.93430000      -1.05900000       0.34440000
C        0.73220000      -0.67240000       1.22460000
C        0.80040000      -0.14080000       2.62520000
C        0.16610000      -1.48610000       2.34990000
H        0.64860000       1.98430000       0.36790000
H       -0.57490000       1.82960000      -0.90400000
H       -1.04610000       1.71060000       0.80090000
H       -1.65600000      -0.46500000      -1.37390000
H       -1.17190000      -1.87940000      -0.42340000
H       -2.13330000      -0.59680000       0.32830000
H        2.13480000      -2.13080000       0.24130000
H        2.87970000      -0.55180000       0.56490000
H        1.76810000      -0.11970000       3.11670000
H        0.14710000       0.68220000       2.89770000
H       -0.91290000      -1.56600000       2.43760000
H        0.70260000      -2.37940000       2.65430000
