23
Properties=species:S:1:pos:R:3 gdb_77676=T pbc="F F F"
C       -0.36710000       1.48480000       0.10680000
C       -0.10880000       0.00330000      -0.04630000
C        0.57260000      -0.63150000      -1.26030000
C       -0.01030000      -1.88190000      -1.87790000
C        1.37090000       0.31200000      -2.16950000
C        2.66140000       0.56090000      -1.36570000
O        2.33240000       0.34080000       0.00670000
C        1.27680000      -0.59920000       0.07720000
C        1.58960000      -1.78100000       0.95510000
H       -1.15720000       1.83100000      -0.56940000
H       -0.68610000       1.71130000       1.12980000
H        0.53480000       2.07000000      -0.08590000
H       -0.89830000      -0.62520000       0.36390000
H       -0.78410000      -1.63240000      -2.61370000
H        0.75790000      -2.47060000      -2.39360000
H       -0.47400000      -2.52610000      -1.12470000
H        1.58350000      -0.15980000      -3.13340000
H        0.83470000       1.24430000      -2.37430000
H        3.45270000      -0.13820000      -1.67860000
H        3.05160000       1.57900000      -1.45740000
H        1.79250000      -1.45230000       1.97990000
H        0.74990000      -2.48090000       0.98700000
H        2.47370000      -2.31750000       0.59370000
