21
Properties=species:S:1:pos:R:3 gdb_77904=T pbc="F F F"
C       -0.35990000       1.58580000       0.26230000
C       -0.06830000       0.09370000       0.11330000
C        0.38010000      -0.45330000      -1.24940000
C        1.78020000      -0.02840000      -1.62050000
O        2.34330000       1.23570000      -1.37470000
C        1.66320000      -1.05830000      -0.57230000
O        2.32300000      -2.26030000      -0.75280000
C        1.21270000      -0.53220000       0.79360000
C        2.17300000       0.31050000       1.62750000
H        0.49920000       2.19580000      -0.02030000
H       -1.20680000       1.87350000      -0.37130000
H       -0.62730000       1.83060000       1.29640000
H       -0.94930000      -0.46340000       0.44900000
H       -0.28590000      -0.87180000      -1.99680000
H        2.10000000      -0.47250000      -2.56500000
H        1.96400000       1.85230000      -2.01020000
H        1.85960000      -2.93510000      -0.24370000
H        0.88500000      -1.39070000       1.39530000
H        2.52210000       1.18340000       1.07500000
H        1.69440000       0.64770000       2.55390000
H        3.05020000      -0.28340000       1.90710000
