13
Properties=species:S:1:pos:R:3 gdb_131365=T pbc="F F F"
O        0.08980000       1.34170000       0.02620000
C        0.07100000      -0.00250000       0.05720000
N        0.07810000      -0.72290000      -1.04540000
N        0.11510000      -2.05510000      -0.63420000
C        0.03120000      -2.10250000       0.71840000
C        0.04470000      -0.80930000       1.23170000
C        0.03050000      -0.99810000       2.63940000
N        0.00590000      -2.28390000       2.95090000
N        0.01830000      -2.96790000       1.75510000
H        0.10990000       1.60370000      -0.90380000
H       -0.16440000      -2.75070000      -1.30320000
H        0.03470000      -0.26380000       3.43050000
H       -0.02880000      -3.97060000       1.76950000
