21
Properties=species:S:1:pos:R:3 gdb_61615=T pbc="F F F"
C        0.08410000       1.54820000      -0.22400000
C        0.01400000       0.05320000       0.00270000
C        1.25230000      -0.80530000      -0.06220000
C        0.53130000      -0.61500000       1.25840000
C        1.14830000       0.15840000       2.40540000
C        1.98570000      -0.75570000       3.34120000
N        3.14600000      -1.42140000       2.74250000
C        2.43090000       0.01740000       4.51200000
N        2.76600000       0.66050000       5.41130000
H        1.02250000       1.97660000       0.13910000
H        0.01490000       1.77710000      -1.29280000
H       -0.73690000       2.06930000       0.28080000
H       -0.88470000      -0.40400000      -0.40330000
H        1.20390000      -1.76950000      -0.55710000
H        2.20010000      -0.29020000      -0.18980000
H       -0.06050000      -1.46650000       1.59050000
H        1.79480000       0.96260000       2.03830000
H        0.36170000       0.63620000       3.00290000
H        1.32420000      -1.54710000       3.71940000
H        2.83320000      -1.94720000       1.93220000
H        3.80290000      -0.72470000       2.40150000
