21
Properties=species:S:1:pos:R:3 gdb_108917=T pbc="F F F"
C       -0.04590000       1.57030000       0.07830000
C        0.03840000       0.06380000       0.00530000
C       -0.82060000      -0.80690000       0.90550000
C        0.68030000      -0.80940000       1.07410000
C        1.48590000      -1.90070000       0.37220000
C        1.17380000      -1.68140000      -1.09860000
C        1.68040000      -2.61930000      -2.14500000
O        1.27240000      -2.17830000      -3.42790000
C        0.41240000      -0.59960000      -1.28360000
H        0.89090000       2.03830000      -0.24490000
H       -0.84730000       1.95460000      -0.56390000
H       -0.25400000       1.90540000       1.09950000
H       -1.39550000      -0.31010000       1.68190000
H       -1.30520000      -1.67550000       0.47040000
H        1.08360000      -0.36500000       1.97720000
H        2.56270000      -1.79860000       0.56970000
H        1.20850000      -2.90940000       0.70860000
H        2.78210000      -2.68050000      -2.07370000
H        1.30710000      -3.63800000      -1.93410000
H        1.61840000      -2.79470000      -4.07910000
H        0.07200000      -0.24660000      -2.24930000
