20
Properties=species:S:1:pos:R:3 gdb_58876=T pbc="F F F"
C       -0.01010000       1.50380000       0.18670000
C        0.00720000      -0.00660000      -0.06500000
O        0.60590000      -0.71960000       1.01750000
C       -1.38220000      -0.55240000      -0.22100000
N       -2.25100000      -0.78370000       0.96080000
C       -1.96580000      -1.89840000       0.01260000
C       -2.96960000      -1.73070000      -1.12790000
C       -2.37880000      -0.28450000      -1.36300000
O       -3.21820000       0.82520000      -1.19940000
H        1.00960000       1.90280000       0.23700000
H       -0.54100000       2.02340000      -0.61620000
H       -0.51930000       1.72310000       1.12990000
H        0.56300000      -0.20720000      -0.99630000
H        1.42680000      -0.27510000       1.25030000
H       -1.60890000      -0.89730000       1.74570000
H       -1.47980000      -2.79950000       0.36320000
H       -2.79410000      -2.39640000      -1.97610000
H       -4.02340000      -1.76450000      -0.83980000
H       -1.90150000      -0.18820000      -2.34170000
H       -3.51210000       0.78110000      -0.27840000
