18
Properties=species:S:1:pos:R:3 gdb_9821=T pbc="F F F"
C        0.12700000       1.52040000      -0.21690000
C        0.02140000       0.01180000      -0.09920000
C        1.31090000      -0.80790000      -0.06140000
C        0.51200000      -0.65470000       1.18570000
C       -1.12700000      -0.68310000      -0.74960000
O       -1.27570000      -1.89220000      -0.69590000
C       -2.16470000       0.13160000      -1.51520000
O       -3.15490000      -0.69300000      -2.04750000
H        1.01670000       1.87760000       0.30900000
H        0.21320000       1.84530000      -1.25930000
H       -0.73730000       2.02760000       0.22480000
H        1.28130000      -1.76920000      -0.56020000
H        2.23680000      -0.25290000      -0.16410000
H        0.87400000       0.00860000       1.96350000
H       -0.05490000      -1.51300000       1.52590000
H       -2.59350000       0.88320000      -0.83130000
H       -1.64820000       0.70060000      -2.30640000
H       -2.89960000      -1.59020000      -1.77400000
