21
Properties=species:S:1:pos:R:3 gdb_117776=T pbc="F F F"
C       -0.01210000       1.62440000       0.09400000
C        0.01680000       0.09430000       0.06330000
C       -1.38440000      -0.51220000      -0.06720000
C       -1.40800000      -2.04700000      -0.03950000
O       -0.85510000      -2.49020000       1.17830000
C       -2.84940000      -2.60190000      -0.16880000
N       -2.81590000      -4.03970000       0.10230000
C       -0.61640000      -2.59600000      -1.18070000
N       -0.03650000      -3.05820000      -2.06790000
H        0.99760000       2.03510000       0.18770000
H       -0.45410000       2.03410000      -0.82130000
H       -0.60140000       1.99470000       0.94050000
H        0.63880000      -0.24640000      -0.77300000
H        0.48300000      -0.29170000       0.97530000
H       -2.01330000      -0.17620000       0.76610000
H       -1.86120000      -0.17010000      -0.99440000
H       -1.20970000      -3.38980000       1.29160000
H       -3.44780000      -2.11950000       0.61000000
H       -3.27050000      -2.32750000      -1.14620000
H       -3.73050000      -4.38510000       0.36670000
H       -2.51940000      -4.55500000      -0.72080000
