15
Properties=species:S:1:pos:R:3 gdb_78157=T pbc="F F F"
O       -0.06920000       1.38480000      -0.05700000
C       -0.05290000      -0.00640000       0.02960000
C       -0.47580000      -0.74530000       1.28220000
C       -1.35520000      -0.74200000       0.01370000
C       -2.59360000       0.05460000       0.34610000
O       -3.60910000       0.03120000      -0.29840000
C       -2.37440000       0.78850000       1.66680000
C       -1.20090000       0.06430000       2.32360000
O       -0.92080000       0.07620000       3.49520000
H        0.72270000       1.72390000       0.37540000
H        0.75030000      -0.48630000      -0.52860000
H        0.09860000      -1.60160000       1.61390000
H       -1.47350000      -1.60060000      -0.63550000
H       -2.09390000       1.82660000       1.45980000
H       -3.26690000       0.78960000       2.29580000
