18
Properties=species:S:1:pos:R:3 gdb_11505=T pbc="F F F"
C       -0.00360000       1.49830000      -0.25530000
C        0.02990000      -0.00010000       0.10810000
C        0.68520000      -0.27280000       1.48740000
C        2.14160000       0.12070000       1.53820000
C        3.15830000      -0.73490000       2.16290000
O        3.03420000      -0.66810000       0.74170000
C       -1.31540000      -0.57030000       0.07170000
C       -2.42770000      -1.02700000       0.06400000
H        1.00800000       1.90920000      -0.31250000
H       -0.48430000       1.64610000      -1.22530000
H       -0.56880000       2.06530000       0.49120000
H        0.64220000      -0.52060000      -0.64020000
H        0.13290000       0.26880000       2.26550000
H        0.59510000      -1.34020000       1.71090000
H        2.35310000       1.19000000       1.49530000
H        4.06340000      -0.29120000       2.57550000
H        2.85740000      -1.67940000       2.61460000
H       -3.40660000      -1.43760000       0.04300000
