21
Properties=species:S:1:pos:R:3 gdb_34017=T pbc="F F F"
C        0.00850000      -1.19260000      -0.00240000
C        0.01040000       0.01090000      -0.02280000
C       -0.00880000       1.44930000      -0.02830000
C        0.48560000       2.13660000      -1.29090000
C        1.34640000       2.16890000      -0.05770000
C        1.55250000       3.47260000       0.71470000
C        0.42080000       3.79510000       1.70450000
C       -0.95900000       3.55840000       1.08300000
C       -1.16070000       2.07050000       0.76610000
H        0.01210000      -2.25400000       0.01020000
H        0.78340000       1.50440000      -2.11900000
H       -0.01330000       3.05590000      -1.58240000
H        2.20340000       1.50440000      -0.07810000
H        2.50300000       3.42120000       1.25530000
H        1.65430000       4.30070000       0.00130000
H        0.51850000       3.15780000       2.59330000
H        0.51940000       4.83030000       2.04840000
H       -1.74950000       3.88420000       1.76750000
H       -1.07000000       4.16790000       0.17650000
H       -2.10150000       1.91010000       0.22680000
H       -1.24810000       1.52200000       1.71190000
