19
Properties=species:S:1:pos:R:3 gdb_28873=T pbc="F F F"
C        0.03220000       1.52500000       0.02590000
C        0.01550000       0.01650000       0.01230000
C        0.01300000      -0.67580000      -1.20670000
N        0.05540000      -0.01540000      -2.44990000
C        0.01870000      -2.08480000      -1.21900000
N        0.00460000      -2.72920000      -2.47590000
C       -0.01320000      -2.78470000      -0.01570000
C       -0.03540000      -2.10090000       1.19690000
C       -0.00580000      -0.71160000       1.20530000
H        0.91780000       1.93090000      -0.47940000
H       -0.84710000       1.95110000      -0.47730000
H        0.03300000       1.90540000       1.05010000
H       -0.20180000       0.96030000      -2.39770000
H       -0.51250000      -0.48770000      -3.14520000
H        0.70040000      -2.34470000      -3.10710000
H        0.13900000      -3.72910000      -2.39850000
H       -0.01270000      -3.87120000      -0.03460000
H       -0.05770000      -2.65360000       2.12970000
H       -0.00890000      -0.17360000       2.14820000
