18
Properties=species:S:1:pos:R:3 gdb_112206=T pbc="F F F"
O        0.02730000       0.53450000       1.27410000
C       -0.11350000       0.32260000      -0.12730000
C       -1.39120000      -0.43030000      -0.46410000
C       -1.55350000      -0.95610000      -1.92780000
C       -1.85850000      -2.35860000      -1.34860000
O       -2.22430000      -3.39380000      -1.82260000
C       -1.51170000      -1.88410000       0.04490000
C       -0.63190000      -2.59120000       1.02520000
N       -2.05960000      -2.40620000       1.29620000
H       -0.62820000       1.18570000       1.54370000
H       -0.06830000       1.27290000      -0.68040000
H        0.75740000      -0.27090000      -0.42620000
H       -2.26190000       0.16570000      -0.16240000
H       -2.35150000      -0.51540000      -2.52910000
H       -0.62600000      -0.94060000      -2.51030000
H       -0.33840000      -3.61540000       0.81360000
H        0.08640000      -1.98380000       1.56620000
H       -2.17960000      -1.62900000       1.94390000
