15
Properties=species:S:1:pos:R:3 gdb_18607=T pbc="F F F"
C       -0.08610000       1.54510000       0.08360000
C        0.00050000       0.05050000      -0.09200000
C        0.70350000      -0.65950000      -1.22480000
C        1.70330000       0.04700000      -2.06230000
C        2.74150000       0.42900000      -1.30600000
C        2.46040000       0.08430000       0.11390000
O        3.07110000       0.40560000       1.10040000
N        1.24920000      -0.70900000       0.13570000
H        0.71110000       2.07740000      -0.43840000
H       -1.04840000       1.90390000      -0.29450000
H       -0.02460000       1.79950000       1.14660000
H       -0.86420000      -0.48460000       0.29860000
H        0.25760000      -1.57390000      -1.60900000
H        1.59080000       0.18720000      -3.13040000
H        3.61650000       0.98960000      -1.60600000
