16
Properties=species:S:1:pos:R:3 gdb_49613=T pbc="F F F"
O       -0.22310000       0.06520000       0.20250000
C       -0.07020000       1.24610000       0.03420000
C        1.28020000       1.93930000       0.03720000
C        1.50430000       2.85790000      -1.14780000
N        0.58970000       4.01870000      -1.13020000
C        1.98320000       4.19220000      -0.68250000
C        2.09910000       4.19790000       0.82150000
C        1.43540000       2.88390000       1.26710000
O        1.09460000       2.61080000       2.38350000
H       -0.92360000       1.93100000      -0.14840000
H        2.05500000       1.16700000       0.10670000
H        1.81880000       2.44300000      -2.09880000
H        0.47110000       4.38380000      -2.07120000
H        2.66500000       4.77790000      -1.28900000
H        3.14660000       4.18770000       1.14810000
H        1.60470000       5.04380000       1.30540000
