16
Properties=species:S:1:pos:R:3 gdb_26043=T pbc="F F F"
N        0.30650000       1.20720000       0.46130000
C       -0.10310000      -0.12390000      -0.03550000
C       -1.57450000      -0.16360000      -0.09160000
N       -2.72780000      -0.18590000      -0.14680000
C        0.47790000      -0.55520000      -1.35630000
C        0.04660000      -0.36530000      -2.65180000
C        1.04100000      -0.89390000      -3.51850000
C        2.05150000      -1.39270000      -2.73030000
N        1.70360000      -1.17950000      -1.42040000
H        1.32040000       1.21960000       0.53760000
H        0.07470000       1.90030000      -0.24650000
H        0.19730000      -0.84640000       0.73650000
H       -0.88870000       0.09150000      -2.93710000
H        1.01260000      -0.91420000      -4.59680000
H        2.97700000      -1.88330000      -2.98510000
H        2.24290000      -1.47920000      -0.62610000
