17
Properties=species:S:1:pos:R:3 gdb_74163=T pbc="F F F"
C        0.04870000       1.46690000       0.05620000
C        0.02510000      -0.02020000      -0.04480000
C       -0.08050000      -0.76880000      -1.15140000
C       -0.07840000      -2.21030000      -0.83770000
O       -0.20510000      -3.13160000      -1.61020000
C        0.11790000      -2.34010000       0.68090000
C        0.09490000      -0.88670000       1.21990000
C        1.22660000      -0.54520000       2.07700000
C        2.16600000      -0.26450000       2.77260000
H        0.95760000       1.79930000       0.57000000
H        0.00110000       1.94110000      -0.92630000
H       -0.79610000       1.82640000       0.65760000
H       -0.17290000      -0.39790000      -2.16480000
H       -0.66260000      -2.97010000       1.11380000
H        1.07640000      -2.82720000       0.87800000
H       -0.82620000      -0.71430000       1.79580000
H        2.99330000      -0.02380000       3.39370000
