16
Properties=species:S:1:pos:R:3 gdb_104556=T pbc="F F F"
N       -0.10480000       0.93310000      -0.00760000
H       -0.03450000      -1.11360000       1.97280000
H        0.81050000       1.30570000      -0.24390000
H       -0.70490000       1.10180000      -0.80740000
C       -0.63410000       1.60430000       1.17660000
C        0.08380000       1.06750000       2.42440000
C       -0.64430000       1.31010000       3.79000000
C       -0.87180000      -0.22380000       3.79460000
O       -1.46630000      -1.00350000       4.48130000
N       -0.11770000      -0.36580000       2.64730000
C        1.50120000       1.46090000       2.39720000
N        2.60680000       1.79270000       2.33910000
H       -0.55680000       2.70350000       1.16690000
H       -1.69320000       1.34540000       1.27730000
H       -0.01290000       1.67990000       4.59790000
H       -1.55370000       1.90870000       3.71810000
