19
Properties=species:S:1:pos:R:3 gdb_90366=T pbc="F F F"
C        0.40520000       1.55030000       0.03760000
C        0.11850000       0.05630000       0.04310000
C        0.93160000      -0.87030000      -0.91790000
C        1.35250000      -1.76470000       0.29410000
C        2.60440000      -1.22560000       0.96590000
O        3.77990000      -1.40280000       0.92900000
O        1.92260000      -0.31050000       1.73890000
C        0.61270000      -0.78790000       1.25160000
C       -0.30170000      -1.14840000       2.38840000
H        1.46560000       1.74770000       0.21560000
H        0.13140000       1.99060000      -0.92680000
H       -0.16740000       2.06790000       0.81480000
H       -0.95460000      -0.11920000      -0.09010000
H        0.31870000      -1.39860000      -1.64970000
H        1.76520000      -0.39700000      -1.44200000
H        1.21040000      -2.84190000       0.24130000
H       -0.57000000      -0.25500000       2.96250000
H       -1.22400000      -1.59860000       2.00900000
H        0.17990000      -1.85720000       3.06830000
