20
Properties=species:S:1:pos:R:3 gdb_118457=T pbc="F F F"
N       -0.70510000       1.24940000       0.95540000
C       -0.38120000       0.15340000       0.21100000
O        0.71730000       0.01160000      -0.29530000
C       -1.51690000      -0.85220000      -0.00100000
C       -2.19930000      -0.50780000      -1.34770000
O       -3.35070000      -1.28940000      -1.60290000
C       -0.97510000      -2.28630000       0.01360000
C       -0.47390000      -2.73590000       1.38810000
O       -0.01540000      -4.07810000       1.38620000
H        0.00290000       1.94870000       1.11090000
H       -1.58670000       1.33770000       1.42850000
H       -2.27590000      -0.73550000       0.78370000
H       -2.54240000       0.53170000      -1.32450000
H       -1.45700000      -0.59260000      -2.15430000
H       -3.06550000      -2.16930000      -1.86570000
H       -1.75770000      -2.98390000      -0.30480000
H       -0.15030000      -2.34500000      -0.70680000
H        0.30700000      -2.04800000       1.74540000
H       -1.29440000      -2.70570000       2.11450000
H        0.77220000      -4.11530000       0.83410000
