16
Properties=species:S:1:pos:R:3 gdb_28675=T pbc="F F F"
C        0.16710000       1.40620000      -0.16370000
C       -0.06340000      -0.05250000      -0.00130000
C       -1.15540000      -0.80480000       0.30280000
C       -0.72520000      -2.17250000       0.30440000
C        0.59850000      -2.15210000       0.00350000
C        1.62990000      -3.22360000      -0.14430000
C        2.12220000      -3.37460000      -1.51990000
N        2.51050000      -3.49320000      -2.60110000
O        1.01760000      -0.86860000      -0.18420000
H        0.91440000       1.77680000       0.54690000
H        0.52640000       1.64450000      -1.17100000
H       -0.76530000       1.94890000       0.00540000
H       -2.14820000      -0.43260000       0.50140000
H       -1.32350000      -3.04890000       0.49930000
H        2.49170000      -3.02640000       0.50570000
H        1.19810000      -4.17590000       0.17840000
