18
Properties=species:S:1:pos:R:3 gdb_30709=T pbc="F F F"
C        0.12720000       1.51390000       0.00570000
C        0.05200000       0.01860000      -0.01450000
C       -0.01800000      -0.80280000      -1.10390000
C       -0.02470000      -0.54100000      -2.57560000
O        1.00210000       0.35490000      -2.99250000
O       -0.08610000      -2.10520000      -0.71790000
C       -0.06400000      -2.12250000       0.65020000
C        0.01940000      -0.85070000       1.13410000
N       -0.01080000      -0.41180000       2.46510000
H        0.97360000       1.86820000       0.60900000
H        0.26200000       1.90590000      -1.00420000
H       -0.77770000       1.95820000       0.43750000
H        0.03500000      -1.50890000      -3.09450000
H       -0.95850000      -0.06070000      -2.89000000
H        1.83230000       0.02180000      -2.63500000
H       -0.12120000      -3.09250000       1.11450000
H        0.25410000      -1.12910000       3.12740000
H        0.55980000       0.41030000       2.61710000
