21
Properties=species:S:1:pos:R:3 gdb_62925=T pbc="F F F"
C       -0.07650000       1.49150000       0.01070000
C       -0.02000000      -0.03990000       0.00470000
C       -1.40810000      -0.60240000      -0.27720000
C        1.18380000      -0.61970000      -0.82440000
C        2.08600000      -0.39300000       0.41870000
C        0.77840000      -0.64270000       1.21780000
O        0.50870000      -2.04590000       1.29190000
C        1.04340000      -2.74510000       0.18530000
O        0.96880000      -2.01980000      -1.02620000
H        0.88570000       1.97000000       0.20730000
H       -0.43520000       1.86100000      -0.95660000
H       -0.77940000       1.84150000       0.77500000
H       -1.77370000      -0.24580000      -1.24700000
H       -1.41970000      -1.69110000      -0.29160000
H       -2.11790000      -0.26510000       0.48680000
H        1.44170000      -0.19070000      -1.79530000
H        2.93390000      -1.05950000       0.57950000
H        2.42980000       0.63620000       0.49850000
H        0.64420000      -0.23590000       2.22270000
H        2.09000000      -3.01890000       0.38990000
H        0.45290000      -3.65670000       0.05780000
