12
Properties=species:S:1:pos:R:3 gdb_697=T pbc="F F F"
C       -0.09450000       1.63000000       0.01070000
C        1.42180000       1.33810000      -0.00440000
C        1.25420000       0.06100000       0.87830000
O        1.99900000      -0.81240000      -0.02110000
C        1.23840000       0.07050000      -0.89760000
C       -0.03790000       0.08680000       0.00190000
H       -0.49300000       2.09950000       0.91420000
H       -0.50910000       2.10900000      -0.88060000
H        2.27170000       2.02030000      -0.00840000
H        1.36980000      -0.06830000       1.95430000
H        1.33470000      -0.04730000      -1.97680000
H       -0.84200000      -0.64890000       0.00520000
