22
Properties=species:S:1:pos:R:3 gdb_117669=T pbc="F F F"
C        0.13080000       1.63230000       0.24880000
C       -0.04600000       0.13160000      -0.03490000
O        0.45570000      -0.63000000       1.06230000
C       -1.52090000      -0.24450000      -0.32320000
C       -2.51610000       0.06050000       0.79170000
O       -2.14140000      -0.69120000       1.95340000
C        0.79000000      -0.25390000      -1.25500000
C        2.21710000      -0.61840000      -1.11210000
N        1.20810000      -1.64820000      -1.44180000
H        1.18770000       1.84520000       0.42650000
H       -0.20860000       2.24400000      -0.59460000
H       -0.42540000       1.93850000       1.14010000
H       -0.27370000      -0.73790000       1.68980000
H       -1.85630000       0.28120000      -1.22490000
H       -1.56110000      -1.31650000      -0.54640000
H       -2.53030000       1.13520000       1.01820000
H       -3.52770000      -0.22350000       0.46860000
H       -2.65880000      -0.38620000       2.70410000
H        0.47140000       0.23850000      -2.17260000
H        2.91890000      -0.38870000      -1.90900000
H        2.63270000      -0.62440000      -0.10980000
H        0.99190000      -2.13710000      -0.57330000
