22
Properties=species:S:1:pos:R:3 gdb_103999=T pbc="F F F"
C       -0.15030000       1.53240000      -0.03980000
C        0.11990000       0.02350000      -0.04910000
C        0.75020000      -0.49490000       1.24050000
O        2.03460000       0.06530000       1.47350000
C       -0.13360000      -0.50060000       2.55220000
C        0.07940000      -2.01260000       2.63120000
N       -0.48270000      -2.56370000       1.36790000
C        0.90120000      -2.02770000       1.39130000
C        2.09320000      -2.83170000       0.97890000
H        0.77570000       2.11270000       0.05200000
H       -0.63080000       1.84930000      -0.97000000
H       -0.81050000       1.81810000       0.78670000
H       -0.81250000      -0.52500000      -0.20950000
H        0.79040000      -0.22360000      -0.88200000
H        1.93000000       1.01620000       1.58020000
H        0.36820000       0.04940000       3.35100000
H       -1.17460000      -0.17900000       2.46140000
H        0.14880000      -2.63200000       3.51770000
H       -0.40080000      -3.57930000       1.42110000
H        2.11970000      -2.98060000      -0.10720000
H        3.01360000      -2.31960000       1.27110000
H        2.08100000      -3.82000000       1.45220000
