16
Properties=species:S:1:pos:R:3 gdb_43203=T pbc="F F F"
O        0.03990000       0.04380000       0.29030000
C        0.05260000       1.22130000       0.08430000
N       -1.00000000       2.17270000      -0.02540000
C       -1.69630000       2.61110000       1.22980000
C       -0.65480000       3.75850000       1.40790000
C       -0.04330000       3.33320000       0.04000000
C        1.11530000       2.33060000       0.01620000
C        2.44830000       2.34530000       0.63020000
O        2.26980000       2.37850000      -0.78730000
H       -2.71360000       2.95180000       1.02600000
H       -1.72500000       1.83400000       1.99760000
H       -1.06940000       4.76720000       1.43640000
H        0.01840000       3.62820000       2.25880000
H       -0.07860000       4.05310000      -0.77940000
H        2.81520000       3.26710000       1.07920000
H        2.85520000       1.41780000       1.02860000
