19
Properties=species:S:1:pos:R:3 gdb_37391=T pbc="F F F"
C       -0.01000000       1.51780000       0.09570000
C        1.30540000       0.83320000      -0.05700000
C        0.03440000      -0.00160000      -0.01330000
N       -0.22460000      -0.67830000      -1.28900000
C       -0.34470000       0.33310000      -2.39600000
C        1.16710000       0.30690000      -2.54250000
C        1.10390000      -1.12600000      -1.97030000
C        2.38720000      -0.82710000      -1.22540000
N        2.04240000       0.65250000      -1.30700000
H       -0.20420000       1.89010000       1.09670000
H       -0.42470000       2.15160000      -0.67430000
H        1.98660000       0.86310000       0.78900000
H       -0.25640000      -0.57780000       0.85980000
H       -0.79420000      -0.15050000      -3.27290000
H       -0.91500000       1.23570000      -2.18670000
H        1.67860000       0.60860000      -3.45960000
H        0.94660000      -2.03760000      -2.54880000
H        2.54620000      -1.20700000      -0.21300000
H        3.26080000      -1.05430000      -1.84540000
