17
Properties=species:S:1:pos:R:3 gdb_67668=T pbc="F F F"
O       -0.21650000       1.50350000       0.00720000
C       -0.05510000       0.12650000       0.02040000
C       -1.14750000      -0.84640000      -0.07570000
C       -1.00050000      -1.62020000      -1.38770000
C        0.48170000      -1.42160000      -1.68730000
C        1.04100000      -0.59380000      -0.78610000
C        2.04670000      -1.10150000       0.20110000
C        1.30570000      -1.37110000       1.29410000
C       -0.08910000      -0.80070000       1.18300000
H        0.55200000       1.89770000       0.43610000
H       -2.14120000      -0.57800000       0.27210000
H       -1.17700000      -2.69950000      -1.28440000
H       -1.71790000      -1.26280000      -2.14250000
H        1.03890000      -2.17340000      -2.23880000
H        3.06500000      -1.40860000       0.00670000
H        1.65820000      -1.88620000       2.18060000
H       -0.61880000      -0.53420000       2.09250000
