17
Properties=species:S:1:pos:R:3 gdb_107610=T pbc="F F F"
O        0.52950000       0.74480000      -0.60280000
C       -0.17650000       0.20530000       0.49630000
C       -1.39960000      -0.55270000       0.04110000
O       -2.11780000      -1.33420000       1.02000000
C       -1.57220000      -2.01150000      -0.11300000
C       -2.62500000      -2.32470000      -1.16480000
C       -3.35610000      -0.97820000      -1.38790000
C       -2.35960000       0.08860000      -0.93300000
O       -2.27640000       1.22720000      -1.33190000
H       -0.07030000       1.37330000      -1.02530000
H        0.50160000      -0.46810000       1.02900000
H       -0.49150000       0.98540000       1.20620000
H       -0.75840000      -2.70070000       0.09720000
H       -2.13110000      -2.65750000      -2.08390000
H       -3.29460000      -3.12540000      -0.83900000
H       -3.65680000      -0.80020000      -2.42150000
H       -4.25180000      -0.90200000      -0.76320000
