18
Properties=species:S:1:pos:R:3 gdb_118620=T pbc="F F F"
O        0.14340000       1.13410000      -0.07130000
C        0.06810000      -0.28390000      -0.04220000
C       -1.41070000      -0.64630000       0.03460000
C       -1.66790000      -2.16810000       0.04060000
N       -1.12810000      -2.83090000       1.23240000
C        0.04270000      -3.52030000       1.21340000
O        0.79750000      -3.58090000       0.26480000
C       -3.09580000      -2.46150000      -0.07860000
C       -4.27580000      -2.67670000      -0.14880000
H        1.07170000       1.38190000      -0.10920000
H        0.51510000      -0.73220000      -0.94260000
H        0.60700000      -0.69470000       0.82350000
H       -1.85250000      -0.19580000       0.93020000
H       -1.92590000      -0.21140000      -0.82800000
H       -1.13040000      -2.61610000      -0.80370000
H       -1.71460000      -2.88290000       2.05050000
H        0.24230000      -4.02200000       2.18020000
H       -5.31560000      -2.87790000      -0.23070000
