25
Properties=species:S:1:pos:R:3 gdb_117720=T pbc="F F F"
C       -0.13780000       1.62450000      -0.19490000
C       -0.02220000       0.10780000      -0.01510000
C        0.82040000      -0.55140000      -1.11330000
C        0.79500000      -2.09700000      -1.13980000
C        1.30760000      -2.69700000       0.17350000
O       -0.56060000      -2.56020000      -1.25450000
C        1.61740000      -2.58290000      -2.35200000
C        1.63000000      -4.09230000      -2.56840000
O        2.21390000      -4.32840000      -3.84480000
H        0.84730000       2.10460000      -0.18150000
H       -0.61180000       1.87590000      -1.15060000
H       -0.73750000       2.07530000       0.60210000
H        0.41310000      -0.10370000       0.96840000
H       -1.01870000      -0.34750000      -0.01500000
H        0.46340000      -0.19760000      -2.09250000
H        1.86240000      -0.21330000      -1.03860000
H        0.70460000      -2.35110000       1.01560000
H        1.24550000      -3.78750000       0.15090000
H        2.34920000      -2.41170000       0.34980000
H       -0.92240000      -2.20150000      -2.07260000
H        1.20340000      -2.12740000      -3.26200000
H        2.64830000      -2.21910000      -2.27080000
H        2.20910000      -4.59200000      -1.77750000
H        0.60070000      -4.47490000      -2.51760000
H        2.22950000      -5.27840000      -3.99270000
