19
Properties=species:S:1:pos:R:3 gdb_86090=T pbc="F F F"
C       -0.33180000       1.49370000       0.05410000
C        0.09200000       0.03800000      -0.04490000
O        1.11630000      -0.08860000      -1.06860000
C        2.15870000      -0.73000000      -0.47520000
N        3.24150000      -0.90340000      -1.29600000
N        2.07150000      -1.05810000       0.75460000
C        0.78140000      -0.57910000       1.19280000
C        0.64970000      -0.02950000       2.59050000
C        0.02760000      -1.36170000       2.23120000
H        0.49830000       2.11660000       0.39850000
H       -0.66640000       1.85930000      -0.92080000
H       -1.16270000       1.60120000       0.75840000
H       -0.75540000      -0.57800000      -0.37080000
H        3.02430000      -0.98070000      -2.27780000
H        3.90220000      -1.58520000      -0.95680000
H        1.54870000      -0.03690000       3.19580000
H       -0.00890000       0.81420000       2.76590000
H       -1.05440000      -1.41260000       2.14750000
H        0.49930000      -2.26360000       2.60380000
