20
Properties=species:S:1:pos:R:3 gdb_99140=T pbc="F F F"
C       -0.00110000       1.27260000      -0.55290000
N       -0.18120000      -0.13970000      -0.28220000
C       -1.35870000      -0.65790000       0.17600000
O       -2.35290000       0.02140000       0.36680000
C       -1.32880000      -2.15840000       0.46340000
C       -2.63470000      -2.82010000       0.08190000
C       -2.82920000      -3.39070000      -1.31010000
C       -2.70560000      -4.30370000      -0.11360000
O       -1.51800000      -5.02180000       0.08150000
H        0.77390000       1.70950000       0.08750000
H        0.27130000       1.44780000      -1.59980000
H       -0.95290000       1.76310000      -0.34550000
H        0.59730000      -0.76250000      -0.41610000
H       -0.48830000      -2.65250000      -0.03190000
H       -1.16130000      -2.27220000       1.54310000
H       -3.50130000      -2.34590000       0.52870000
H       -3.79230000      -3.27960000      -1.79590000
H       -1.97500000      -3.35820000      -1.97980000
H       -3.60390000      -4.81460000       0.23300000
H       -1.49460000      -5.73370000      -0.56600000
