18
Properties=species:S:1:pos:R:3 gdb_93985=T pbc="F F F"
C       -0.14840000       1.58170000      -0.05810000
C        0.08380000       0.07450000      -0.02990000
C        0.90070000      -0.52320000      -1.18510000
C        1.48300000      -1.81290000      -0.58640000
N        1.64800000      -1.48230000       0.83470000
C        2.47270000      -2.23350000       1.66500000
O        2.64460000      -2.06550000       2.84140000
C        0.85210000      -0.37850000       1.21860000
O        0.79010000       0.10340000       2.31630000
H        0.79870000       2.12100000      -0.16280000
H       -0.79600000       1.86380000      -0.89320000
H       -0.61560000       1.90600000       0.87480000
H       -0.88860000      -0.43840000       0.02400000
H        0.31240000      -0.71560000      -2.08440000
H        1.71320000       0.16130000      -1.45310000
H        0.78980000      -2.65540000      -0.70710000
H        2.44050000      -2.09730000      -1.03030000
H        2.97780000      -3.03520000       1.08680000
