16
Properties=species:S:1:pos:R:3 gdb_30835=T pbc="F F F"
C       -0.29080000       1.61330000      -0.18080000
C        0.05170000       0.12490000       0.00990000
C        0.82390000      -0.46670000      -1.10890000
C        2.05710000      -1.00150000      -1.27030000
O        3.01630000      -1.15760000      -0.33500000
N        2.26360000      -1.40770000      -2.58380000
C        1.14190000      -1.09640000      -3.15460000
O        0.79290000      -1.26880000      -4.42740000
O        0.22020000      -0.53560000      -2.38040000
H        0.61890000       2.21450000      -0.27000000
H       -0.88330000       1.76240000      -1.08820000
H       -0.87040000       1.98910000       0.66790000
H        0.65380000      -0.00960000       0.91470000
H       -0.87620000      -0.44190000       0.16860000
H        3.76640000      -1.57590000      -0.77290000
H        1.54520000      -1.68070000      -4.87070000
