21
Properties=species:S:1:pos:R:3 gdb_83352=T pbc="F F F"
C       -0.09530000       1.54660000      -0.04540000
C        0.03540000       0.02790000       0.00190000
C        1.07790000      -0.58790000      -0.95150000
O        2.32810000      -0.04180000      -0.42720000
C        2.18910000      -0.05840000       0.99470000
C        0.74900000      -0.61510000       1.24490000
C        0.18380000      -0.36810000       2.63080000
C        0.83230000      -2.05990000       0.77120000
C        1.02490000      -2.05080000      -0.55200000
H        0.87920000       2.03960000      -0.07080000
H       -0.64230000       1.85060000      -0.94430000
H       -0.65380000       1.92520000       0.81740000
H       -0.94240000      -0.44210000      -0.13390000
H        1.03170000      -0.34140000      -2.01150000
H        2.95910000      -0.69390000       1.44870000
H        2.29950000       0.96100000       1.38730000
H        0.14920000       0.70080000       2.86560000
H       -0.83270000      -0.76570000       2.71940000
H        0.79640000      -0.85330000       3.39910000
H        0.83930000      -2.91380000       1.43890000
H        1.23040000      -2.88970000      -1.20400000
