12
Properties=species:S:1:pos:R:3 gdb_11153=T pbc="F F F"
O        0.03330000      -0.00510000       0.00310000
C       -0.02610000       1.19820000       0.01020000
C       -1.27150000       2.10480000       0.03220000
C       -0.70900000       3.49640000       0.03170000
C        0.63260000       3.40830000       0.01260000
N        1.05630000       2.06840000      -0.00030000
C        1.58280000       4.46420000       0.00500000
N        2.37170000       5.31120000      -0.00150000
H       -1.90090000       1.88850000      -0.83870000
H       -1.87650000       1.87930000       0.91810000
H       -1.27520000       4.41400000       0.04440000
H        2.01520000       1.76140000      -0.01520000
