19
Properties=species:S:1:pos:R:3 gdb_94750=T pbc="F F F"
C       -0.01260000       1.56000000      -0.04740000
C        0.03830000       0.03430000       0.04430000
C        0.79890000      -0.62260000      -1.13230000
O        1.36350000      -1.84090000      -0.65280000
C        1.53740000      -1.73050000       0.74350000
C        2.27850000      -0.50660000       1.25520000
C        0.76500000      -0.53310000       1.25540000
C        1.61980000      -2.98700000       1.42330000
C        1.69900000      -4.03360000       2.00940000
H        0.99510000       1.98830000      -0.02200000
H       -0.49290000       1.88400000      -0.97710000
H       -0.57930000       1.98810000       0.78500000
H       -0.98630000      -0.35710000       0.06700000
H        0.15460000      -0.86520000      -1.98190000
H        1.59180000       0.04920000      -1.49450000
H        2.77620000      -0.60170000       2.21290000
H        2.80720000       0.10240000       0.52940000
H        0.24570000      -0.58070000       2.20490000
H        1.76550000      -4.96080000       2.52250000
