18
Properties=species:S:1:pos:R:3 gdb_55836=T pbc="F F F"
C       -0.98570000       0.39420000       0.18880000
C        0.47470000       0.42250000      -0.21330000
O        1.27200000       1.18810000       0.27450000
C        0.91250000      -0.54480000      -1.32060000
N        0.24240000      -1.82680000      -1.27170000
C        0.71030000      -2.81760000      -0.26960000
C        0.65640000      -3.87910000      -1.37870000
O        0.73320000      -5.06780000      -1.42130000
C        0.44180000      -2.75920000      -2.40840000
H       -1.63270000       0.41210000      -0.69390000
H       -1.21270000      -0.53910000       0.71440000
H       -1.19980000       1.24230000       0.84000000
H        0.64870000      -0.05850000      -2.27040000
H        2.01370000      -0.61500000      -1.28460000
H        1.74100000      -2.65310000       0.08520000
H        0.05560000      -2.96260000       0.59610000
H       -0.40920000      -2.85640000      -3.09060000
H        1.35520000      -2.57620000      -2.99730000
