19
Properties=species:S:1:pos:R:3 gdb_17792=T pbc="F F F"
O       -0.09560000       1.49100000      -0.55980000
C       -0.11930000       0.07870000      -0.70910000
C       -1.40300000      -0.43330000      -0.06190000
C       -1.47890000      -1.94940000      -0.08340000
C       -2.80070000      -2.75610000       0.00150000
C       -3.02270000      -2.32870000      -1.46450000
N       -1.52030000      -2.67580000      -1.45910000
C       -1.96570000      -3.89230000      -0.62600000
H        0.68040000       1.82680000      -1.01750000
H       -0.09980000      -0.21870000      -1.76750000
H        0.75380000      -0.38830000      -0.22380000
H       -1.42250000      -0.10090000       0.98360000
H       -2.25450000       0.04450000      -0.55370000
H       -0.66280000      -2.35670000       0.52670000
H       -3.52360000      -2.80580000       0.82410000
H       -3.61150000      -2.99300000      -2.10300000
H       -3.24420000      -1.28580000      -1.69100000
H       -1.16080000      -4.33400000      -0.03170000
H       -2.48920000      -4.64950000      -1.21560000
