22
Properties=species:S:1:pos:R:3 gdb_79576=T pbc="F F F"
C       -0.04820000       1.55490000      -0.04240000
C        0.08870000       0.04900000       0.05720000
C        1.36490000      -0.72000000      -0.19950000
C        2.56940000      -0.02240000       0.39060000
N        3.15880000      -0.77950000       1.50100000
C        1.93210000      -0.01250000       1.75680000
C        1.95000000       1.00510000       2.86120000
C        0.70460000      -0.73040000       1.19960000
C       -0.00870000      -1.85130000       1.90810000
H        0.84110000       2.07500000       0.31940000
H       -0.20770000       1.85560000      -1.08400000
H       -0.90670000       1.91060000       0.53840000
H       -0.78000000      -0.47330000      -0.34650000
H        1.40830000      -1.53950000      -0.91050000
H        3.18350000       0.73800000      -0.07900000
H        2.97810000      -1.77760000       1.40680000
H        2.92990000       1.48560000       2.91990000
H        1.18670000       1.77480000       2.71150000
H        1.75640000       0.52900000       3.83000000
H       -0.62030000      -1.47400000       2.73670000
H       -0.67560000      -2.39200000       1.22880000
H        0.69890000      -2.57710000       2.32670000
