18
Properties=species:S:1:pos:R:3 gdb_101650=T pbc="F F F"
O        0.08700000       1.40820000      -0.06080000
C        0.08790000       0.00430000       0.05300000
C       -1.33380000      -0.55600000       0.01410000
O       -1.98250000      -0.09540000      -1.19180000
C       -1.39290000      -2.07800000       0.15220000
C       -2.84200000      -2.60940000       0.21810000
O       -3.57170000      -2.37520000      -0.96680000
C       -2.83320000      -4.06220000       0.46360000
N       -2.79270000      -5.19430000       0.68710000
H       -0.53700000       1.62340000      -0.76510000
H        0.68290000      -0.47190000      -0.74860000
H        0.56650000      -0.24660000       1.00540000
H       -1.91020000      -0.08280000       0.81790000
H       -1.52250000      -0.49630000      -1.94160000
H       -0.88050000      -2.55850000      -0.69050000
H       -0.86360000      -2.37450000       1.06480000
H       -3.33910000      -2.14470000       1.08730000
H       -3.42480000      -1.44340000      -1.18940000
