19
Properties=species:S:1:pos:R:3 gdb_57644=T pbc="F F F"
C       -0.02650000       1.57000000      -0.18630000
C       -0.02270000       0.03660000      -0.04490000
O        0.58360000      -0.35200000       1.17370000
C       -1.45090000      -0.57160000      -0.11160000
N       -2.14010000      -0.25500000       1.13340000
C       -3.18800000       0.76480000       1.10560000
C       -3.53270000      -0.67550000       1.24790000
C        0.77070000      -0.54770000      -1.14750000
N        1.35740000      -0.98730000      -2.04000000
H        0.99520000       1.94550000      -0.10190000
H       -0.44000000       1.88340000      -1.14960000
H       -0.62290000       2.00670000       0.61860000
H       -0.15120000      -0.37500000       1.80820000
H       -1.98050000      -0.21710000      -1.00900000
H       -1.35340000      -1.65930000      -0.17840000
H       -3.22600000       1.42730000       1.96500000
H       -3.40440000       1.23910000       0.15070000
H       -3.98230000      -1.16760000       0.38810000
H       -3.82390000      -1.08130000       2.21200000
