12
Properties=species:S:1:pos:R:3 gdb_21615=T pbc="F F F"
N        0.02370000       1.36490000       0.15140000
C       -0.03670000      -0.00830000       0.04010000
N       -1.13220000      -0.73970000       0.05140000
C       -0.64110000      -2.02290000      -0.00360000
N        0.68130000      -2.11830000      -0.05690000
N        1.05450000      -0.80820000      -0.02490000
C       -1.48060000      -3.16720000      -0.01140000
C       -2.20310000      -4.12800000      -0.01770000
H        0.72380000       1.81570000      -0.42120000
H       -0.88780000       1.78380000       0.02680000
H        2.03140000      -0.56900000       0.00220000
H       -2.83900000      -4.97830000      -0.02280000
