17
Properties=species:S:1:pos:R:3 gdb_84970=T pbc="F F F"
C       -0.39040000       1.57410000       0.24840000
C        0.13620000       0.15400000      -0.03690000
N        0.98960000       0.15760000      -1.20470000
C        2.17470000      -0.51850000      -1.36740000
N        2.72190000      -0.62560000      -2.51520000
C        2.80980000      -1.08240000      -0.10410000
O        3.89670000      -1.62150000      -0.16280000
C        2.04710000      -0.95860000       1.14380000
C        0.82650000      -0.41290000       1.16230000
H        0.43800000       2.24840000       0.48080000
H       -0.91830000       1.96310000      -0.62750000
H       -1.09150000       1.56560000       1.08830000
H       -0.74810000      -0.48710000      -0.21530000
H        0.58440000       0.48790000      -2.06920000
H        3.60990000      -1.11580000      -2.39300000
H        2.51310000      -1.36300000       2.03650000
H        0.25870000      -0.36210000       2.08790000
