12
Properties=species:S:1:pos:R:3 gdb_130869=T pbc="F F F"
O       -0.92270000       1.23880000      -0.13910000
C        0.20390000       0.85420000       0.06650000
C        1.38570000       1.75980000      -0.02770000
C        1.25270000       3.06630000      -0.35050000
C        2.42400000       3.88260000      -0.42480000
N        3.62500000       3.45690000      -0.20210000
O        3.77370000       2.13110000       0.12690000
C        2.71580000       1.21780000       0.23570000
O        2.98660000       0.08720000       0.53060000
H        0.43720000      -0.19030000       0.33740000
H        0.26760000       3.47770000      -0.54790000
H        2.36790000       4.93560000      -0.67970000
