15
Properties=species:S:1:pos:R:3 gdb_34576=T pbc="F F F"
N       -0.01580000      -1.14570000      -0.18340000
C       -0.05250000       0.00520000      -0.09420000
C       -0.09260000       1.43720000       0.01880000
N       -1.13850000       2.13760000      -0.16310000
C       -0.72550000       3.53040000       0.04990000
C       -1.06250000       4.08590000       1.46290000
C        0.42930000       3.88980000       1.88780000
C        0.77870000       3.43480000       0.45240000
O        1.09120000       2.02470000       0.33210000
H       -1.02480000       4.14280000      -0.80300000
H       -1.38720000       5.12840000       1.45180000
H       -1.79820000       3.49340000       2.00900000
H        0.94390000       4.79690000       2.21120000
H        0.60130000       3.10950000       2.63190000
H        1.54250000       3.99140000      -0.08980000
