18
Properties=species:S:1:pos:R:3 gdb_47513=T pbc="F F F"
O        0.08310000      -0.01260000       0.06470000
C        0.00460000       1.18890000       0.00810000
N       -1.18370000       1.86820000      -0.01740000
C       -1.38210000       3.30690000      -0.07580000
C       -0.10560000       3.99700000       0.40050000
C        1.06190000       3.33360000      -0.28120000
C        1.51860000       3.74810000      -1.65540000
C        2.39560000       3.98300000      -0.43760000
O        1.14090000       1.94540000       0.00440000
H       -1.98360000       1.25730000      -0.04320000
H       -1.61790000       3.62930000      -1.10040000
H       -2.23360000       3.57870000       0.55750000
H       -0.13810000       5.06320000       0.16280000
H       -0.00140000       3.89240000       1.48650000
H        1.81390000       2.95650000      -2.33380000
H        1.04130000       4.60180000      -2.12550000
H        2.52020000       4.99620000      -0.07140000
H        3.26120000       3.34200000      -0.31810000
