18
Properties=species:S:1:pos:R:3 gdb_3515=T pbc="F F F"
C       -0.11930000       1.13850000      -0.44740000
C        1.22580000       0.98660000       0.17710000
N        0.30030000      -0.13610000       0.11700000
C       -0.28850000      -0.61560000       1.35190000
C       -0.82720000       0.29910000       2.50410000
C       -1.96750000      -0.73800000       2.69940000
C       -1.68900000      -1.26630000       1.26690000
H       -0.84730000       1.74600000       0.08600000
H       -0.22680000       1.15450000      -1.52860000
H        2.11920000       0.90360000      -0.43630000
H        1.37650000       1.47710000       1.13770000
H        0.42560000      -1.32900000       1.77940000
H       -0.16300000       0.50120000       3.34780000
H       -1.22230000       1.24960000       2.13450000
H       -1.71360000      -1.47900000       3.46240000
H       -2.96650000      -0.35160000       2.91090000
H       -2.30600000      -0.74880000       0.52550000
H       -1.74380000      -2.34140000       1.08230000
