15
Properties=species:S:1:pos:R:3 gdb_16099=T pbc="F F F"
N        0.06260000      -1.16730000      -0.05920000
C        0.04180000      -0.01120000      -0.01070000
C        0.00460000       1.42100000       0.04730000
C        0.38760000       2.23400000      -1.19010000
C        1.27350000       2.29130000       0.01570000
C        1.06670000       3.41620000       1.02850000
C       -0.35790000       3.22040000       1.50230000
C       -0.91830000       2.12050000       0.99860000
H        0.75590000       1.67890000      -2.04560000
H       -0.25400000       3.07670000      -1.42460000
H        2.24170000       1.81130000      -0.05090000
H        1.77700000       3.34060000       1.86160000
H        1.22120000       4.40470000       0.57810000
H       -0.85210000       3.92210000       2.16390000
H       -1.91870000       1.75740000       1.19730000
