24
Properties=species:S:1:pos:R:3 gdb_101829=T pbc="F F F"
C       -0.26150000       1.55150000      -0.10470000
C       -0.00790000       0.03940000      -0.02850000
C        0.85570000      -0.42180000      -1.20460000
O        0.16820000      -0.13130000      -2.41390000
C        0.64140000      -0.39890000       1.29500000
C       -0.24210000      -0.20050000       2.52800000
N        0.40900000      -0.74270000       3.71800000
C        1.27100000       0.17950000       4.45190000
C       -0.05360000      -0.22320000       4.99920000
H        0.66790000       2.10890000       0.06800000
H       -0.63790000       1.82070000      -1.09390000
H       -0.99140000       1.88150000       0.63980000
H       -0.97240000      -0.47840000      -0.13060000
H        1.83040000       0.09400000      -1.16880000
H        1.05230000      -1.50200000      -1.11450000
H        0.74160000      -0.36350000      -3.14960000
H        0.90520000      -1.46230000       1.24420000
H        1.58450000       0.14660000       1.43920000
H       -0.49360000       0.86720000       2.65730000
H       -1.18950000      -0.73790000       2.39300000
H        2.18840000      -0.24170000       4.85290000
H        1.36230000       1.19860000       4.07750000
H       -0.84180000       0.52860000       4.99230000
H       -0.12280000      -0.94660000       5.80670000
