14
Properties=species:S:1:pos:R:3 gdb_5098=T pbc="F F F"
N       -0.00420000       1.41620000       0.07640000
C       -0.03220000       0.02250000       0.03030000
C       -1.07870000      -0.84530000       0.03680000
O       -0.59180000      -2.15320000       0.03290000
C        0.74860000      -2.06370000       0.03630000
O        1.45130000      -3.21260000       0.01580000
C        1.17550000      -0.77270000       0.02760000
N        2.48350000      -0.22710000      -0.05370000
H        0.85960000       1.76670000      -0.32230000
H       -0.80250000       1.85820000      -0.35830000
H       -2.14870000      -0.74750000       0.05320000
H        0.83030000      -3.93770000      -0.12000000
H        3.11380000      -0.86180000      -0.53110000
H        2.87790000      -0.04860000       0.86590000
