27
Properties=species:S:1:pos:R:3 gdb_117984=T pbc="F F F"
C        0.05910000       1.39690000       0.03480000
O        0.01520000      -0.00310000      -0.08020000
C       -1.27830000      -0.53480000       0.13810000
C       -1.18860000      -2.06400000       0.05000000
C       -0.33830000      -2.58230000       1.22220000
C       -2.58330000      -2.75720000      -0.10100000
C       -3.19590000      -2.40850000      -1.47370000
C       -2.41110000      -4.28880000      -0.04650000
C       -3.56440000      -2.32970000       1.00910000
H        1.08950000       1.71030000      -0.15170000
H       -0.59920000       1.89000000      -0.69890000
H       -0.23880000       1.73650000       1.04000000
H       -1.64650000      -0.22560000       1.13140000
H       -1.97510000      -0.12340000      -0.60810000
H       -0.63430000      -2.27460000      -0.87510000
H       -0.87130000      -2.50020000       2.17620000
H       -0.04550000      -3.62630000       1.08950000
H        0.57280000      -1.98420000       1.29740000
H       -2.52900000      -2.70770000      -2.28990000
H       -4.14680000      -2.93460000      -1.61240000
H       -3.39960000      -1.33950000      -1.58370000
H       -2.09930000      -4.63260000       0.94340000
H       -3.35840000      -4.78520000      -0.28310000
H       -1.66590000      -4.63170000      -0.77330000
H       -3.80430000      -1.26300000       0.95510000
H       -4.50700000      -2.88020000       0.91540000
H       -3.16510000      -2.53470000       2.00750000
