20
Properties=species:S:1:pos:R:3 gdb_40808=T pbc="F F F"
C       -0.19180000       1.41320000      -0.12380000
C        1.24710000       1.02340000       0.11680000
C        0.18840000      -0.03880000       0.02900000
C       -0.22960000      -0.80470000       1.26670000
C       -1.66340000      -1.34410000       1.15590000
C       -1.93040000      -2.29610000       2.31290000
O       -0.94070000      -3.33590000       2.36890000
C        0.31140000      -2.97600000       1.99530000
N        0.73440000      -1.88160000       1.52500000
H       -0.73040000       1.88600000       0.69210000
H       -0.47540000       1.77470000      -1.10590000
H        1.95120000       1.11700000      -0.70220000
H        1.67400000       1.22830000       1.09290000
H        0.18430000      -0.64090000      -0.87620000
H       -0.17850000      -0.10850000       2.11810000
H       -2.39520000      -0.53020000       1.16160000
H       -1.77840000      -1.88290000       0.20770000
H       -1.91800000      -1.75930000       3.27070000
H       -2.89210000      -2.80650000       2.22020000
H        0.99080000      -3.81230000       2.15400000
