23
Properties=species:S:1:pos:R:3 gdb_57408=T pbc="F F F"
C       -1.47040000      -0.42200000      -0.75000000
C       -0.15260000      -0.12790000      -0.01570000
C       -0.14880000       1.29770000       0.54520000
O       -0.05540000      -0.97570000       1.13340000
C        1.01860000      -0.29020000      -0.99470000
C        2.49180000      -0.32520000      -0.71250000
C        2.87380000      -1.21800000       0.48190000
C        2.21570000      -2.43560000      -0.23770000
C        1.79160000      -1.52020000      -1.39790000
H       -1.62900000       0.26840000      -1.58440000
H       -1.46450000      -1.43900000      -1.16030000
H       -2.31390000      -0.33040000      -0.05930000
H       -0.99850000       1.44180000       1.21870000
H        0.77210000       1.47780000       1.10610000
H       -0.21170000       2.03480000      -0.26070000
H       -0.24530000      -1.87570000       0.85210000
H        0.82950000       0.31990000      -1.87950000
H        3.15810000       0.40450000      -1.15950000
H        3.95550000      -1.33640000       0.57820000
H        2.45460000      -0.93800000       1.44820000
H        2.96860000      -3.15540000      -0.56910000
H        1.44080000      -2.99180000       0.29700000
H        1.83730000      -1.81730000      -2.44030000
