19
Properties=species:S:1:pos:R:3 gdb_83380=T pbc="F F F"
C       -0.05920000       1.62350000       0.02930000
C        0.03170000       0.10940000       0.08570000
C        1.10530000      -0.62690000      -0.71680000
O        2.34830000      -0.05050000      -0.19330000
C        2.13970000       0.02290000       1.26160000
C        0.78490000      -0.64110000       1.27410000
C       -0.11960000      -1.62140000       2.01590000
O       -0.21660000      -2.42180000       0.79270000
C        0.99880000      -1.80430000       0.27790000
H        0.92750000       2.09110000      -0.00440000
H       -0.60080000       1.93600000      -0.87010000
H       -0.60370000       2.02160000       0.89270000
H       -0.94410000      -0.35710000      -0.05040000
H        1.19270000      -0.67080000      -1.80260000
H        2.92290000      -0.54510000       1.77240000
H        2.17680000       1.06860000       1.58280000
H        0.36830000      -2.19150000       2.81700000
H       -1.09870000      -1.26440000       2.34960000
H        1.85570000      -2.48120000       0.32960000
