19
Properties=species:S:1:pos:R:3 gdb_72271=T pbc="F F F"
O       -0.03780000       1.40970000      -0.00060000
C       -0.00450000       0.01700000      -0.07350000
C        0.42470000      -0.74520000      -1.33210000
C       -0.51470000      -1.87610000      -0.81350000
C        0.29290000      -2.77910000       0.11720000
O        1.07040000      -1.96250000       0.99770000
C        0.40280000      -0.74160000       1.26690000
C       -1.11020000      -0.95340000       1.55750000
C       -1.31630000      -0.80480000       0.03970000
H        0.86320000       1.72870000       0.12510000
H        0.02750000      -0.25470000      -2.22520000
H        1.48170000      -0.99050000      -1.47390000
H       -1.08310000      -2.44820000      -1.54820000
H       -0.36520000      -3.44740000       0.69120000
H        0.99990000      -3.40200000      -0.44100000
H        1.01380000      -0.18930000       1.98460000
H       -1.39770000      -1.87630000       2.06830000
H       -1.53460000      -0.09750000       2.08840000
H       -2.26410000      -0.47600000      -0.38750000
