19
Properties=species:S:1:pos:R:3 gdb_81166=T pbc="F F F"
C       -0.15260000       1.63160000       0.10870000
C        0.04700000       0.12800000       0.10170000
C        1.13930000      -0.60580000      -0.71980000
C        2.46430000       0.07260000      -0.31520000
C        2.23150000       0.06980000       1.22850000
C        0.85400000      -0.62960000       1.21320000
O        1.05870000      -1.70310000       0.24700000
C        0.18960000      -1.03460000       2.48960000
O        0.16560000      -0.33980000       3.47530000
H        0.78460000       2.18380000       0.21110000
H       -0.63220000       1.95660000      -0.82090000
H       -0.80470000       1.92660000       0.93730000
H       -0.90030000      -0.39850000      -0.04250000
H        0.99500000      -0.91550000      -1.75510000
H        3.31980000      -0.53750000      -0.61030000
H        2.58660000       1.07130000      -0.74210000
H        2.96470000      -0.53310000       1.76670000
H        2.19710000       1.06110000       1.68300000
H       -0.31900000      -2.02300000       2.44700000
