17
Properties=species:S:1:pos:R:3 gdb_74804=T pbc="F F F"
C        0.05980000       1.51920000       0.01470000
C       -0.02230000       0.03160000      -0.06160000
C       -0.02980000      -0.77490000      -1.13510000
C       -0.02630000      -2.21990000      -0.73010000
O        1.14810000      -2.58090000       0.03390000
C       -0.08060000      -2.27650000       0.73290000
C       -0.68530000      -3.33740000       1.60050000
C       -0.08810000      -0.80950000       1.17920000
O       -0.16400000      -0.41240000       2.31730000
H        0.98530000       1.82800000       0.51420000
H        0.03130000       1.97700000      -0.97700000
H       -0.76280000       1.92000000       0.61620000
H        0.01210000      -0.45090000      -2.16880000
H       -0.42540000      -2.99890000      -1.37200000
H       -0.55820000      -4.32160000       1.14420000
H       -0.20400000      -3.33580000       2.58310000
H       -1.75250000      -3.14970000       1.75410000
