19
Properties=species:S:1:pos:R:3 gdb_61670=T pbc="F F F"
O       -0.15520000       1.40230000       0.08830000
C        0.02100000      -0.00860000      -0.03520000
C        0.79470000      -0.37670000      -1.31810000
C        0.05500000       0.07990000      -2.56330000
C        0.55280000      -0.43550000      -3.93230000
C       -0.85390000      -1.05530000      -4.04980000
O       -1.20960000      -0.61530000      -2.72270000
C        0.66040000      -0.57690000       1.15350000
C        1.22860000      -1.01250000       2.11950000
H        0.68210000       1.77170000       0.39060000
H       -0.99340000      -0.41220000      -0.13190000
H        1.78980000       0.08660000      -1.28590000
H        0.93680000      -1.46280000      -1.35140000
H       -0.10770000       1.16350000      -2.51940000
H        0.80460000       0.32890000      -4.66860000
H        1.36900000      -1.15870000      -3.87120000
H       -1.49900000      -0.60400000      -4.81420000
H       -0.90160000      -2.14620000      -4.14790000
H        1.70790000      -1.40510000       2.98220000
