15
Properties=species:S:1:pos:R:3 gdb_66826=T pbc="F F F"
O        0.07760000       1.44570000       0.27810000
C       -0.01030000       0.08520000       0.06790000
C       -1.28010000      -0.75440000      -0.03590000
C       -0.73860000      -1.90220000      -0.88320000
N        0.53940000      -1.69340000      -1.48330000
C        1.00520000      -0.66410000      -0.86560000
N        1.98790000      -0.98750000       0.19310000
C        0.66010000      -0.91840000       1.01240000
C       -0.53720000      -1.88350000       0.66530000
H        0.05750000       1.89030000      -0.57710000
H       -2.31570000      -0.44930000       0.00870000
H       -1.40690000      -2.64330000      -1.30590000
H        2.47800000      -0.14140000       0.49820000
H        0.79790000      -0.70400000       2.07270000
H       -0.91640000      -2.67500000       1.29540000
