20
Properties=species:S:1:pos:R:3 gdb_99375=T pbc="F F F"
C       -0.10490000       1.43830000       0.18350000
C       -0.07820000      -0.06400000      -0.10230000
C       -1.47910000      -0.67040000      -0.11200000
O       -2.39560000      -0.23490000       0.56510000
N       -1.64050000      -1.75540000      -0.92690000
C       -2.89110000      -2.49150000      -0.96630000
C       -3.06640000      -3.45080000       0.23060000
C       -4.43400000      -4.09150000       0.23320000
O       -4.64060000      -5.27730000       0.19270000
H        0.90920000       1.82770000       0.30760000
H       -0.58370000       1.98610000      -0.63360000
H       -0.67590000       1.63520000       1.09280000
H        0.43540000      -0.27840000      -1.04670000
H        0.48900000      -0.58270000       0.68230000
H       -0.84150000      -2.13040000      -1.41050000
H       -3.70450000      -1.75990000      -0.96560000
H       -2.93300000      -3.04580000      -1.90840000
H       -2.30480000      -4.23530000       0.23120000
H       -2.97070000      -2.85100000       1.14460000
H       -5.27940000      -3.36490000       0.27070000
