22
Properties=species:S:1:pos:R:3 gdb_71886=T pbc="F F F"
C        0.01660000       1.56580000       0.07670000
C       -0.04500000       0.05790000       0.00190000
C        0.33680000      -0.65220000      -1.31670000
N       -0.77990000      -1.64770000      -1.19080000
C       -0.40450000      -2.71300000      -0.20170000
C       -0.71520000      -1.80510000       1.00990000
C       -1.40720000      -2.39210000       2.21810000
C        0.42240000      -0.76760000       1.23540000
C       -1.34310000      -0.82160000      -0.03820000
H        1.05700000       1.91440000       0.08580000
H       -0.48020000       2.02930000      -0.78310000
H       -0.46380000       1.94270000       0.98660000
H        0.16330000      -0.01920000      -2.19460000
H        1.33930000      -1.09010000      -1.39600000
H       -1.10700000      -3.55040000      -0.28410000
H        0.61530000      -3.10260000      -0.30720000
H       -0.73000000      -3.05330000       2.77340000
H       -1.74170000      -1.60990000       2.90870000
H       -2.28340000      -2.98330000       1.92890000
H        1.45500000      -1.13470000       1.24350000
H        0.24630000      -0.20460000       2.15900000
H       -2.37560000      -0.47180000      -0.07820000
