17
Properties=species:S:1:pos:R:3 gdb_35354=T pbc="F F F"
C       -0.29800000      -1.23290000      -0.21070000
C       -0.20480000      -0.03970000      -0.09410000
C       -0.05450000       1.39920000       0.02890000
C       -0.05780000       1.94100000       1.51700000
C        1.43980000       2.03750000       1.31290000
N        2.55550000       1.91050000       1.89980000
C        3.50030000       1.67490000       0.76700000
C        2.61410000       1.25450000      -0.45840000
N        1.36020000       1.91340000      -0.07480000
H       -0.39440000      -2.28620000      -0.30970000
H       -0.72760000       1.91710000      -0.65940000
H       -0.57400000       2.89660000       1.62030000
H       -0.38970000       1.24220000       2.28310000
H        4.05260000       2.59740000       0.54830000
H        4.22860000       0.90800000       1.04140000
H        3.00050000       1.61600000      -1.41390000
H        2.48610000       0.16450000      -0.51060000
