18
Properties=species:S:1:pos:R:3 gdb_83447=T pbc="F F F"
C        0.00090000       1.57420000       0.13170000
C        0.05110000       0.06380000       0.18110000
C        1.26220000      -0.74340000      -0.19130000
O        2.46990000      -0.06020000       0.15030000
C        2.11920000      -0.11130000       1.55890000
C        0.77060000      -0.75610000       1.24240000
C        0.11330000      -1.83520000       2.06690000
C       -0.55240000      -1.29920000       3.25920000
N       -1.06450000      -0.85780000       4.19620000
H        0.99990000       2.00220000       0.24230000
H       -0.39500000       1.90930000      -0.83230000
H       -0.64240000       1.97810000       0.91960000
H       -0.86950000      -0.43300000      -0.12400000
H        1.31420000      -1.50430000      -0.96290000
H        2.80020000      -0.78250000       2.09570000
H        2.12290000       0.87570000       2.03320000
H       -0.63230000      -2.36980000       1.46740000
H        0.84970000      -2.58150000       2.39060000
