15
Properties=species:S:1:pos:R:3 gdb_84614=T pbc="F F F"
O        0.06850000       1.37030000      -0.13310000
C        0.08910000      -0.03910000      -0.04050000
C        0.69720000      -0.53780000       1.26390000
C       -0.15820000      -1.26360000       1.98470000
C       -1.47390000      -1.35900000       1.27940000
O       -2.10470000      -0.07190000       1.06890000
C       -1.33230000      -0.64960000      -0.00690000
C       -2.01840000      -0.98130000      -1.21760000
C       -2.55590000      -1.25040000      -2.25860000
H       -0.54630000       1.66990000       0.55020000
H        0.64060000      -0.39340000      -0.91720000
H        1.69590000      -0.24050000       1.56160000
H        0.02570000      -1.70270000       2.95740000
H       -2.16190000      -2.18620000       1.42010000
H       -3.04040000      -1.48740000      -3.17350000
