21
Properties=species:S:1:pos:R:3 gdb_84366=T pbc="F F F"
C       -0.81720000       1.11930000      -0.07220000
C        0.02410000      -0.15270000      -0.08430000
C        1.08290000      -0.22650000      -1.22050000
O        1.64460000       1.03470000      -1.59880000
C        2.12730000      -1.15160000      -0.63990000
C        1.98730000      -1.27950000       0.67780000
C        0.79440000      -0.50910000       1.22080000
C        1.24210000       0.68990000       2.06780000
O       -0.07550000      -1.33950000       1.99850000
H       -0.19870000       2.01720000      -0.00250000
H       -1.39780000       1.20050000      -0.99670000
H       -1.52130000       1.10970000       0.76540000
H       -0.64110000      -1.01080000      -0.23260000
H        0.63680000      -0.60520000      -2.14600000
H        2.28770000       1.27910000      -0.92480000
H        2.91750000      -1.58520000      -1.24330000
H        2.63850000      -1.85000000       1.33410000
H        1.84040000       1.39840000       1.48700000
H        0.37370000       1.21850000       2.47030000
H        1.86070000       0.35430000       2.90950000
H        0.34100000      -1.49160000       2.85380000
