15
Properties=species:S:1:pos:R:3 gdb_71476=T pbc="F F F"
O        0.06250000       1.41920000      -0.05710000
C       -0.00830000       0.04920000      -0.01670000
C        0.39320000      -0.74660000      -1.26200000
N       -0.51640000      -1.86040000      -0.82740000
C       -1.28720000      -0.92180000       0.01540000
C       -0.37100000      -1.88840000       0.68530000
C        0.60100000      -0.79450000       1.13420000
C       -0.66920000      -3.10860000       1.36200000
N       -0.89720000      -4.07870000       1.94900000
H       -0.07590000       1.77600000       0.82700000
H       -0.01290000      -0.32300000      -2.18280000
H        1.44640000      -1.01500000      -1.39240000
H       -2.36530000      -0.82800000       0.01390000
H        1.67550000      -0.99750000       1.10360000
H        0.31300000      -0.41670000       2.11960000
