22
Properties=species:S:1:pos:R:3 gdb_109834=T pbc="F F F"
C       -0.20270000       1.53910000      -0.00870000
C        0.15100000       0.05120000       0.11970000
C        0.77570000      -0.50900000      -1.14390000
C        0.85720000      -1.98950000      -1.44710000
C        0.32400000      -3.05880000      -0.51950000
C       -0.05680000      -1.10090000      -2.26490000
N       -1.47850000      -1.19660000      -2.09950000
C       -2.21610000      -2.20800000      -2.64000000
O       -1.76410000      -3.18250000      -3.19910000
H        0.68660000       2.13700000      -0.23520000
H       -0.92280000       1.71510000      -0.81640000
H       -0.63860000       1.92600000       0.91750000
H        0.85260000      -0.08210000       0.95280000
H       -0.74510000      -0.51650000       0.38890000
H        1.62260000       0.07990000      -1.49020000
H        1.75250000      -2.29410000      -1.98280000
H       -0.59460000      -2.75120000      -0.01540000
H        0.09790000      -3.96650000      -1.08570000
H        1.06150000      -3.30620000       0.25160000
H        0.25490000      -0.89240000      -3.28570000
H       -1.98120000      -0.38730000      -1.76770000
H       -3.30360000      -2.03990000      -2.49680000
