10
Properties=species:S:1:pos:R:3 gdb_132343=T pbc="F F F"
O        0.18540000       1.45030000       0.00780000
C       -0.03660000       0.13390000       0.00360000
N        1.15740000      -0.59190000      -0.00650000
C        1.11670000      -1.86750000      -0.01220000
F        2.27250000      -2.49270000      -0.02340000
N        0.10320000      -2.76160000      -0.01170000
C       -1.12710000      -2.63820000      -0.00440000
O       -2.26150000      -2.85350000       0.00060000
O       -1.16690000      -0.30620000       0.00800000
H        1.14420000       1.58250000       0.00290000
