17
Properties=species:S:1:pos:R:3 gdb_111574=T pbc="F F F"
O        0.02740000       1.39310000      -0.09850000
C        0.02080000      -0.01700000       0.08090000
C       -1.38890000      -0.60030000       0.03980000
C       -2.10470000      -0.50410000      -1.32660000
O       -1.16710000      -1.18720000      -2.21480000
C       -1.57280000      -2.37900000      -1.54220000
C       -2.97130000      -1.84890000      -1.22680000
O       -2.95490000      -2.31990000       0.11760000
C       -1.50830000      -2.14130000       0.04340000
H       -0.09950000       1.56610000      -1.03640000
H        0.65760000      -0.51680000      -0.65880000
H        0.45440000      -0.19650000       1.07080000
H       -1.99890000      -0.19020000       0.84890000
H       -2.46640000       0.44740000      -1.71080000
H       -1.27870000      -3.32170000      -1.99880000
H       -3.89810000      -1.98050000      -1.78120000
H       -0.94760000      -2.75040000       0.74970000
