16
Properties=species:S:1:pos:R:3 gdb_26432=T pbc="F F F"
C        0.00080000       1.47140000       0.01620000
N        0.02750000       0.00940000      -0.02290000
C        0.07730000      -0.69100000       1.16910000
N        0.09960000      -0.07140000       2.28170000
C        0.00220000      -0.62490000      -1.24100000
N       -0.04420000      -0.07340000      -2.41590000
C       -0.05040000      -1.15770000      -3.28990000
C       -0.00710000      -2.30870000      -2.59100000
O        0.02780000      -1.97720000      -1.24700000
H        0.89390000       1.84240000       0.52460000
H       -0.03740000       1.83790000      -1.00700000
H       -0.87300000       1.80880000       0.57860000
H        0.09370000      -1.77260000       1.03040000
H        0.13580000      -0.73780000       3.04990000
H       -0.08580000      -1.01730000      -4.35840000
H        0.00590000      -3.35880000      -2.82070000
