23
Properties=species:S:1:pos:R:3 gdb_110965=T pbc="F F F"
C       -0.01810000       1.60930000      -0.28770000
C        0.05910000       0.09430000      -0.14760000
C        1.21050000      -0.73970000      -0.79270000
C        2.15200000      -0.21820000       0.32830000
C        0.81660000      -0.59090000       1.04970000
C        0.50680000      -0.46800000       2.51950000
C        0.85280000      -1.90580000       0.19160000
C       -0.35770000      -2.80570000      -0.00520000
O       -0.09600000      -3.82890000      -0.96180000
H        0.93330000       2.12030000      -0.12330000
H       -0.36770000       1.88060000      -1.29030000
H       -0.74030000       2.02090000       0.42680000
H       -0.93900000      -0.31500000      -0.32470000
H        1.44780000      -0.82210000      -1.85600000
H        3.01610000      -0.84570000       0.56560000
H        2.43660000       0.83410000       0.30310000
H        0.56560000       0.57570000       2.84810000
H       -0.50170000      -0.83180000       2.74610000
H        1.21490000      -1.04760000       3.12210000
H        1.71050000      -2.54880000       0.42260000
H       -0.57210000      -3.33450000       0.93080000
H       -1.26660000      -2.24950000      -0.27180000
H        0.12050000      -3.39560000      -1.79360000
