19
Properties=species:S:1:pos:R:3 gdb_20086=T pbc="F F F"
C       -0.08430000       1.53920000       0.66720000
C        0.07840000       0.08880000       0.26400000
C        0.46930000      -0.34630000      -1.11700000
C        0.75250000       0.62350000      -2.22010000
C        1.11730000       0.14460000      -3.56210000
O       -0.20110000       0.61790000      -3.28990000
N        1.37190000      -0.55110000       0.01880000
C        2.61570000       0.19920000       0.12650000
H        0.55600000       2.22560000       0.11040000
H       -1.12090000       1.85230000       0.50510000
H        0.13760000       1.66810000       1.73220000
H       -0.60960000      -0.56990000       0.79470000
H        0.03570000      -1.26890000      -1.50410000
H        1.08640000       1.62060000      -1.94170000
H        1.71680000       0.77430000      -4.21830000
H        1.20070000      -0.92680000      -3.74130000
H        2.56730000       1.26070000      -0.15360000
H        2.96620000       0.14390000       1.16220000
H        3.36930000      -0.28020000      -0.50640000
