16
Properties=species:S:1:pos:R:3 gdb_51834=T pbc="F F F"
N       -0.40090000       1.23850000      -0.27660000
C       -0.21290000      -0.00520000      -0.21270000
O       -1.24760000      -0.80830000       0.15150000
C       -0.98230000      -2.21210000       0.18980000
C       -2.21960000      -2.92280000       0.71550000
C       -3.02810000      -3.16620000      -0.56880000
O       -2.04940000      -3.29070000      -1.62120000
C       -0.86830000      -2.74520000      -1.25470000
O        0.08170000      -2.67390000      -1.97980000
H        0.46150000       1.70610000      -0.54840000
H        0.71310000      -0.55030000      -0.42400000
H       -0.06620000      -2.41730000       0.75040000
H       -1.93060000      -3.87510000       1.16870000
H       -2.75490000      -2.32580000       1.45460000
H       -3.61350000      -4.08670000      -0.55270000
H       -3.68550000      -2.32500000      -0.80760000
