12
Properties=species:S:1:pos:R:3 gdb_132676=T pbc="F F F"
O        0.07060000       1.37780000      -0.07420000
C        0.05410000       0.02110000      -0.06100000
C        0.02360000      -0.71220000      -1.24210000
C        0.00750000      -2.10300000      -1.18240000
C        0.02310000      -2.69030000       0.07510000
F        0.00850000      -4.01550000       0.17740000
N        0.05190000      -2.01990000       1.21080000
C        0.06640000      -0.71510000       1.12530000
F        0.09580000      -0.01780000       2.27000000
H        0.09100000       1.68470000       0.84060000
H        0.01290000      -0.18710000      -2.19010000
H       -0.01620000      -2.71600000      -2.07370000
