15
Properties=species:S:1:pos:R:3 gdb_51858=T pbc="F F F"
O       -0.08720000       0.11540000       0.44240000
C       -0.02340000       1.23630000       0.04590000
O        1.01430000       2.05650000       0.34510000
C        0.92690000       3.41480000      -0.10130000
O        0.35930000       4.23710000       0.85420000
C        1.38460000       4.62200000       1.79990000
C        2.66020000       4.77860000       0.96730000
C        2.38650000       3.90420000      -0.25610000
O        3.11470000       3.65400000      -1.17280000
H       -0.77570000       1.72130000      -0.60450000
H        0.34460000       3.47440000      -1.02560000
H        1.04470000       5.54320000       2.27350000
H        1.49000000       3.84470000       2.56480000
H        2.80520000       5.80980000       0.62880000
H        3.57500000       4.45920000       1.47050000
