19
Properties=species:S:1:pos:R:3 gdb_6152=T pbc="F F F"
C       -0.15060000       1.47990000      -0.42210000
N       -0.08170000       0.02490000      -0.43080000
C       -1.02270000      -0.62880000       0.07170000
C       -1.31780000      -2.09860000       0.25280000
C       -2.62490000      -1.59780000       0.92450000
C       -3.91090000      -1.88510000       0.16900000
C       -2.73860000      -1.84310000       2.41910000
O       -2.19450000      -0.20220000       0.67420000
H        0.72250000       1.87720000       0.10770000
H       -0.09110000       1.84800000      -1.45250000
H       -1.05730000       1.88440000       0.04310000
H       -1.44690000      -2.65970000      -0.67470000
H       -0.62330000      -2.63020000       0.90620000
H       -4.18680000      -2.93970000       0.27280000
H       -4.73140000      -1.27670000       0.56190000
H       -3.79550000      -1.66020000      -0.89480000
H       -1.80430000      -1.58880000       2.92710000
H       -3.54020000      -1.23430000       2.84850000
H       -2.96540000      -2.89610000       2.61660000
