14
Properties=species:S:1:pos:R:3 gdb_112390=T pbc="F F F"
C        0.11760000       1.36980000       0.07580000
O        0.07090000      -0.05340000      -0.00370000
C        0.60700000      -0.57000000      -1.15490000
O        2.04840000      -0.47980000      -1.16500000
C        2.59810000      -1.70290000      -1.01630000
O        3.75110000      -1.94440000      -0.90440000
O        1.60720000      -2.66710000      -1.03970000
C        0.37680000      -2.07030000      -1.19630000
N       -0.72450000      -2.64400000      -1.34440000
H        1.15040000       1.73000000       0.13030000
H       -0.38210000       1.82460000      -0.79010000
H       -0.41470000       1.64470000       0.98680000
H        0.24850000      -0.05190000      -2.05310000
H       -0.63000000      -3.66050000      -1.32440000
