23
Properties=species:S:1:pos:R:3 gdb_111686=T pbc="F F F"
C       -0.10530000       1.60980000      -0.26180000
C       -0.02200000       0.16620000       0.25100000
C       -1.35350000      -0.55470000       0.12560000
C       -1.82650000      -1.25840000      -1.12740000
C       -0.76800000      -1.74650000      -2.10350000
O        0.20120000      -2.44880000      -1.32990000
C       -0.44450000      -3.00690000      -0.18060000
C        0.59670000      -3.24620000       0.90360000
C       -1.58570000      -2.05130000       0.13940000
H        0.85390000       2.12530000      -0.15160000
H       -0.38170000       1.63730000      -1.32120000
H       -0.85790000       2.18540000       0.28910000
H        0.75580000      -0.37670000      -0.29040000
H        0.28080000       0.17650000       1.30650000
H       -2.15830000      -0.01740000       0.62660000
H       -2.82340000      -1.07270000      -1.51120000
H       -1.23200000      -2.40950000      -2.85180000
H       -0.23840000      -0.95040000      -2.63870000
H       -0.89650000      -3.97790000      -0.45300000
H        1.04550000      -2.30810000       1.23780000
H        0.13420000      -3.73610000       1.76620000
H        1.39160000      -3.89670000       0.52720000
H       -2.40980000      -2.44320000       0.72570000
