23
Properties=species:S:1:pos:R:3 gdb_115839=T pbc="F F F"
C       -0.38120000       1.43230000      -0.18940000
C       -0.01840000      -0.02470000       0.01720000
C        1.31790000      -0.65630000      -0.29850000
C        2.57050000       0.21210000      -0.37520000
C        2.65290000       0.98630000       0.96520000
C        1.78110000       0.19520000       1.97450000
C        1.12050000       1.06410000       3.03760000
O        2.15290000       1.68070000       3.79810000
C        0.81410000      -0.63210000       1.13280000
H        0.44900000       2.11670000      -0.01320000
H       -0.72110000       1.59260000      -1.21930000
H       -1.20190000       1.72990000       0.47350000
H       -0.84880000      -0.67740000      -0.24810000
H        1.31640000      -1.57580000      -0.87520000
H        3.44030000      -0.44490000      -0.48860000
H        2.57520000       0.88630000      -1.23940000
H        3.68130000       1.08730000       1.31860000
H        2.27230000       2.00620000       0.85730000
H        2.42630000      -0.51470000       2.50990000
H        0.47660000       1.81860000       2.55930000
H        0.47540000       0.44070000       3.67800000
H        1.74380000       2.25740000       4.44960000
H        0.41890000      -1.53220000       1.59410000
