25
Properties=species:S:1:pos:R:3 gdb_117334=T pbc="F F F"
C        0.11170000       1.61730000       0.05860000
C       -0.07850000       0.09910000       0.02590000
C        0.79120000      -0.58360000      -1.02950000
C        0.66570000      -2.10210000      -1.05480000
O        0.06020000      -2.70740000      -0.19800000
C        1.33090000      -2.80900000      -2.23190000
C        1.49000000      -4.32700000      -2.06820000
C        1.84180000      -4.98390000      -3.40890000
C        2.53200000      -4.66710000      -0.99400000
H        1.15020000       1.88480000       0.28500000
H       -0.14260000       2.07420000      -0.90460000
H       -0.52300000       2.07840000       0.82160000
H        0.14940000      -0.33410000       1.00510000
H       -1.12970000      -0.14390000      -0.16590000
H        0.57490000      -0.19770000      -2.03580000
H        1.85460000      -0.35160000      -0.86390000
H        0.70810000      -2.58490000      -3.11150000
H        2.29800000      -2.32990000      -2.43920000
H        0.52210000      -4.71500000      -1.73000000
H        2.79850000      -4.61070000      -3.79450000
H        1.93160000      -6.06980000      -3.30150000
H        1.07760000      -4.78460000      -4.16820000
H        2.25740000      -4.23570000      -0.02820000
H        2.61980000      -5.75070000      -0.86470000
H        3.52250000      -4.28670000      -1.27400000
