18
Properties=species:S:1:pos:R:3 gdb_124477=T pbc="F F F"
C       -0.19800000       1.54090000      -0.03620000
C        0.00000000       0.02190000       0.00150000
C        0.80980000      -0.40070000       1.23400000
O       -1.25750000      -0.64940000       0.13230000
C        0.69030000      -0.48010000      -1.25440000
N        1.49050000       0.28370000      -1.95940000
O        1.95040000      -0.50950000      -3.00840000
C        1.40140000      -1.72820000      -2.89830000
C        0.59120000      -1.78980000      -1.81400000
H        0.75880000       2.06010000      -0.12510000
H       -0.80820000       1.83120000      -0.89800000
H       -0.70310000       1.86430000       0.87780000
H        0.28930000      -0.08030000       2.14080000
H        0.91920000      -1.48790000       1.26420000
H        1.80430000       0.05140000       1.21190000
H       -1.83170000      -0.33890000      -0.57660000
H        1.67830000      -2.43740000      -3.66320000
H        0.00240000      -2.61570000      -1.45480000
