20
Properties=species:S:1:pos:R:3 gdb_64130=T pbc="F F F"
C       -0.02130000       1.50460000       0.10900000
C       -0.01990000      -0.01800000      -0.04560000
C       -1.43730000      -0.58660000       0.01880000
C        0.75550000      -0.48420000      -1.30270000
C        2.15810000      -0.80440000      -0.77070000
C        1.82940000      -1.32440000       0.64060000
O        0.73540000      -0.55090000       1.08510000
C        1.49250000      -2.76880000       0.62370000
N        1.22690000      -3.89360000       0.60280000
H        0.99070000       1.91030000       0.01630000
H       -0.65220000       1.97150000      -0.65400000
H       -0.40850000       1.78120000       1.09360000
H       -2.03290000      -0.23170000      -0.82890000
H       -1.41480000      -1.67940000      -0.00770000
H       -1.93490000      -0.27540000       0.94180000
H        0.29700000      -1.38680000      -1.71800000
H        0.76330000       0.27770000      -2.08500000
H        2.70710000      -1.52620000      -1.37780000
H        2.76450000       0.10060000      -0.67380000
H        2.65560000      -1.18600000       1.34580000
