19
Properties=species:S:1:pos:R:3 gdb_126608=T pbc="F F F"
C        0.03550000       1.48290000      -0.12140000
C        0.22440000      -0.03540000      -0.09280000
C        0.55610000      -0.54900000       1.31300000
N        0.71410000      -1.99120000       1.36740000
C        1.87320000      -2.70310000       1.27720000
C        1.50670000      -4.03440000       1.28180000
O        2.37240000      -5.08520000       1.22050000
C        0.10030000      -4.02500000       1.37180000
N       -0.37050000      -2.77620000       1.41940000
H        0.94200000       2.00560000       0.20440000
H       -0.20220000       1.83000000      -1.13090000
H       -0.78160000       1.79460000       0.53830000
H       -0.68480000      -0.54060000      -0.43530000
H        1.02760000      -0.33040000      -0.77860000
H        1.48410000      -0.09860000       1.68000000
H       -0.24360000      -0.28510000       2.01130000
H        2.84020000      -2.23100000       1.22780000
H        1.86500000      -5.90150000       1.24760000
H       -0.57950000      -4.86450000       1.41380000
