19
Properties=species:S:1:pos:R:3 gdb_40926=T pbc="F F F"
C        0.14970000       1.47650000      -0.33580000
C        1.60340000       1.44160000       0.16930000
C        1.22100000       0.06760000       0.75660000
C        1.93370000      -1.27090000       0.41170000
C        2.06880000      -1.58250000       1.91640000
O        3.29130000      -1.06920000       2.49040000
C        2.62620000       0.12880000       2.95170000
C        1.30770000      -0.27230000       2.27100000
O       -0.12270000       0.18180000       0.24020000
H       -0.48810000       2.25810000       0.09420000
H        0.02060000       1.47340000      -1.42450000
H        2.37190000       1.41330000      -0.60530000
H        1.86500000       2.20580000       0.90390000
H        1.24350000      -1.93970000      -0.11080000
H        2.87790000      -1.20960000      -0.13490000
H        1.82630000      -2.58460000       2.27740000
H        2.57370000       0.15780000       4.04750000
H        3.11760000       1.04400000       2.59720000
H        0.37510000      -0.20640000       2.82890000
