20
Properties=species:S:1:pos:R:3 gdb_99306=T pbc="F F F"
C        0.04430000       1.31140000       0.17020000
O        0.20530000      -0.10490000       0.02210000
C        0.60020000      -0.51690000      -1.19980000
O        0.80710000       0.23240000      -2.12170000
C        0.74550000      -2.02410000      -1.23750000
C        1.14230000      -2.54730000      -2.62120000
C        1.30890000      -4.04920000      -2.64310000
C        2.26440000      -4.69460000      -3.57350000
N        2.53830000      -4.67630000      -2.12300000
H        0.98550000       1.83030000      -0.02840000
H       -0.71480000       1.68820000      -0.52010000
H       -0.26770000       1.46830000       1.20280000
H        1.48260000      -2.31200000      -0.47800000
H       -0.20060000      -2.46570000      -0.90220000
H        0.38260000      -2.24550000      -3.35170000
H        2.07370000      -2.06530000      -2.94090000
H        0.41260000      -4.60860000      -2.37620000
H        2.05170000      -5.67660000      -3.98650000
H        2.85230000      -4.04990000      -4.22230000
H        3.22770000      -3.95410000      -1.92240000
