21
Properties=species:S:1:pos:R:3 gdb_53667=T pbc="F F F"
C        0.15710000       1.51180000       0.05970000
C        0.05480000       0.06130000       0.13900000
C       -0.01870000      -1.13850000       0.21200000
C       -0.13950000      -2.58990000       0.28230000
C       -1.39360000      -3.12650000      -0.44410000
C       -1.46460000      -4.63180000      -0.37040000
O       -1.75470000      -5.21200000       0.90990000
C       -2.69110000      -5.41930000      -0.15420000
C       -4.07530000      -4.84660000       0.01240000
H        1.12340000       1.82210000      -0.35360000
H       -0.62560000       1.93280000      -0.58130000
H        0.05740000       1.97420000       1.04820000
H        0.75650000      -3.05820000      -0.14730000
H       -0.17990000      -2.91610000       1.32880000
H       -2.28190000      -2.67160000       0.00000000
H       -1.36370000      -2.81960000      -1.49640000
H       -0.64830000      -5.13830000      -0.89330000
H       -2.67860000      -6.44030000      -0.54360000
H       -4.05250000      -3.82980000       0.40830000
H       -4.60250000      -4.83820000      -0.94790000
H       -4.65500000      -5.46490000       0.70570000
