16
Properties=species:S:1:pos:R:3 gdb_14329=T pbc="F F F"
O       -0.10270000       0.02040000       0.39480000
C       -0.06750000       1.20040000       0.17120000
C       -1.28260000       2.08380000      -0.16270000
C       -0.85460000       3.52760000       0.11240000
C       -0.94320000       3.98540000       1.58150000
O        0.46720000       3.75870000       1.79080000
C        0.68530000       3.49220000       0.38630000
C        1.18980000       2.08000000       0.14610000
H       -1.51290000       1.93120000      -1.22480000
H       -2.15870000       1.75460000       0.40220000
H       -1.21690000       4.24030000      -0.62790000
H       -1.20940000       5.04160000       1.71630000
H       -1.56170000       3.37300000       2.24910000
H        1.29570000       4.27300000      -0.07950000
H        1.92080000       1.75340000       0.88860000
H        1.65090000       1.98710000      -0.84670000
