18
Properties=species:S:1:pos:R:3 gdb_37735=T pbc="F F F"
C       -0.08270000       1.58640000      -0.00070000
C        1.41650000       1.22310000       0.03320000
C        1.21580000       0.02860000       0.99760000
C        1.85620000      -0.93530000       0.00470000
C        1.19600000      -2.31000000      -0.08530000
O       -0.17250000      -2.26040000      -0.48070000
C       -0.93050000      -1.11720000      -0.09410000
C       -0.00940000       0.05770000       0.03080000
N        1.19620000       0.05370000      -0.95930000
H       -0.49160000       2.08210000       0.88330000
H       -0.45080000       2.03470000      -0.92760000
H        2.28750000       1.87340000      -0.06400000
H        1.20360000       0.02660000       2.09350000
H        2.94820000      -0.99200000      -0.06420000
H        1.68910000      -2.92490000      -0.84530000
H        1.30550000      -2.82500000       0.88480000
H       -1.67880000      -0.96770000      -0.88010000
H       -1.46100000      -1.29270000       0.85620000
