23
Properties=species:S:1:pos:R:3 gdb_68587=T pbc="F F F"
C       -0.04370000       1.51160000       0.02010000
C       -0.00880000       0.00220000      -0.00320000
C        0.35510000      -0.81320000      -1.28860000
C       -0.38880000      -1.95790000      -0.54170000
C        0.56470000      -2.21610000       0.64010000
C        0.84990000      -0.73090000       1.04910000
C       -1.33550000      -0.83950000       0.01470000
C       -2.12840000      -1.04700000       1.29830000
O       -2.20440000      -0.30390000      -0.98060000
H        0.94600000       1.93140000      -0.19370000
H       -0.74640000       1.89470000      -0.72530000
H       -0.35450000       1.88810000       1.00210000
H       -0.17210000      -0.46290000      -2.17260000
H        1.41830000      -0.96260000      -1.49990000
H       -0.79460000      -2.82570000      -1.06600000
H        0.11090000      -2.80270000       1.44350000
H        1.46920000      -2.74170000       0.32090000
H        1.90670000      -0.46420000       0.95280000
H        0.54740000      -0.50210000       2.07530000
H       -1.52560000      -1.42170000       2.12750000
H       -2.59030000      -0.10350000       1.60570000
H       -2.93620000      -1.77120000       1.13010000
H       -2.92280000      -0.93160000      -1.11050000
