23
Properties=species:S:1:pos:R:3 gdb_121229=T pbc="F F F"
C       -0.10000000       1.64990000      -0.22580000
C       -0.08470000       0.24300000       0.38210000
C       -1.33100000      -0.54240000       0.00630000
O       -1.43870000      -0.76730000      -1.42150000
C       -1.74770000      -2.16330000      -1.22260000
C       -1.44760000      -2.06630000       0.28640000
C       -0.20270000      -2.80280000       0.74490000
O       -0.50350000      -4.18290000       0.74330000
C        0.58890000      -4.98400000       1.12450000
H        0.81330000       2.19850000       0.02250000
H       -0.18060000       1.59230000      -1.31480000
H       -0.95210000       2.23100000       0.14380000
H        0.80610000      -0.29490000       0.03970000
H       -0.02580000       0.30380000       1.47690000
H       -2.21800000       0.00200000       0.36760000
H       -2.79120000      -2.39120000      -1.47450000
H       -1.08990000      -2.82050000      -1.80310000
H       -2.27830000      -2.34470000       0.93860000
H        0.64550000      -2.59860000       0.07000000
H        0.09850000      -2.47450000       1.75470000
H        0.25970000      -6.02540000       1.08980000
H        1.44590000      -4.85910000       0.44360000
H        0.92890000      -4.75280000       2.14670000
