15
Properties=species:S:1:pos:R:3 gdb_45008=T pbc="F F F"
N        0.05420000       0.64780000      -1.12840000
C       -0.03470000      -0.03860000      -0.07800000
C       -1.34230000      -0.60160000       0.41760000
C       -1.16400000      -2.00210000       0.95230000
N       -0.19100000      -2.80960000       0.22330000
C        0.14910000      -2.31880000       1.58140000
C        1.18320000      -1.24730000       1.65620000
O        2.07320000      -1.22380000       2.45570000
O        1.07510000      -0.22960000       0.73930000
H        1.01500000       0.96470000      -1.27150000
H       -1.72800000       0.04530000       1.21670000
H       -2.05040000      -0.56740000      -0.41230000
H       -2.04420000      -2.48280000       1.37060000
H       -0.41690000      -3.79920000       0.27640000
H        0.20690000      -3.02520000       2.40130000
