18
Properties=species:S:1:pos:R:3 gdb_61894=T pbc="F F F"
C        0.05530000       1.42560000       0.05560000
C        0.05930000      -0.07770000      -0.07560000
O        1.07580000      -0.71830000      -0.23960000
C       -1.27400000      -0.83400000       0.00030000
O       -1.04970000      -2.20390000      -0.18640000
C       -1.99340000      -0.58050000       1.33840000
C       -3.27760000      -1.42710000       1.42970000
C       -3.97660000      -1.23620000       2.69740000
N       -4.51660000      -1.06820000       3.70510000
H        1.00740000       1.82750000      -0.29260000
H       -0.77270000       1.87320000      -0.50230000
H       -0.07700000       1.70150000       1.10830000
H       -1.91110000      -0.44460000      -0.81450000
H       -0.08590000      -2.29160000      -0.28280000
H       -1.32600000      -0.84920000       2.16430000
H       -2.24180000       0.48040000       1.44160000
H       -3.96110000      -1.17170000       0.61120000
H       -3.01940000      -2.48330000       1.31090000
