17
Properties=species:S:1:pos:R:3 gdb_109289=T pbc="F F F"
O        0.05760000       1.32290000       0.47480000
C        0.01370000       0.01230000      -0.07630000
C       -1.37930000      -0.56140000      -0.08330000
C       -1.91610000      -1.23490000      -1.10400000
C       -3.28120000      -1.85120000      -0.98950000
N       -3.99080000      -1.29020000       0.15540000
C       -3.44210000      -0.63880000       1.22870000
O       -4.08180000      -0.29880000       2.20550000
N       -2.08210000      -0.37300000       1.10520000
H       -0.46090000       1.90050000      -0.09630000
H        0.43180000      -0.02850000      -1.09030000
H        0.65900000      -0.58820000       0.57590000
H       -1.35420000      -1.38980000      -2.01620000
H       -3.86610000      -1.65710000      -1.89950000
H       -3.20410000      -2.95010000      -0.90610000
H       -4.95710000      -1.53730000       0.29480000
H       -1.71690000       0.29330000       1.76880000
