13
Properties=species:S:1:pos:R:3 gdb_9019=T pbc="F F F"
N       -0.10500000       1.36550000      -0.15890000
C        0.02150000       0.05550000       0.23720000
N        1.08730000      -0.59670000       0.49240000
C        2.35610000       0.07390000       0.32340000
C        3.50490000      -0.86830000       0.67050000
O        4.66220000      -0.58100000       0.52510000
C       -1.24980000      -0.62400000       0.41730000
N       -2.27820000      -1.13550000       0.54230000
H        0.70620000       1.84140000      -0.51780000
H       -0.99500000       1.68260000      -0.50690000
H        2.52110000       0.43080000      -0.70750000
H        2.44770000       0.96080000       0.97320000
H        3.17100000      -1.84750000       1.07610000
