19
Properties=species:S:1:pos:R:3 gdb_39389=T pbc="F F F"
C       -0.00380000       1.54030000      -0.12680000
C        1.52720000       1.32420000       0.02730000
C        1.19670000       0.05160000       0.89470000
C       -0.02070000       0.01910000      -0.03130000
O       -1.07660000      -0.85180000      -0.35320000
C        0.08550000      -0.81560000      -1.22380000
C        0.18550000      -0.08340000      -2.53960000
O        1.17620000       0.96260000      -2.46670000
C        2.11330000       0.97960000      -1.38640000
H       -0.44120000       1.99560000       0.76620000
H       -0.36490000       2.03300000      -1.02680000
H        2.10970000       2.10420000       0.52090000
H        1.88660000      -0.79530000       0.86770000
H        0.97780000       0.33190000       1.92910000
H        0.67500000      -1.72770000      -1.14360000
H        0.45990000      -0.76630000      -3.35370000
H       -0.76660000       0.39220000      -2.79760000
H        2.81340000       1.76640000      -1.67920000
H        2.68150000       0.03840000      -1.34010000
