17
Properties=species:S:1:pos:R:3 gdb_79087=T pbc="F F F"
O       -0.02940000       1.43870000      -0.07720000
C        0.03570000       0.03220000       0.00290000
C        0.02350000      -0.63430000       1.40240000
C       -1.48300000      -0.21210000       1.58290000
C       -2.18290000      -1.34720000       2.31540000
C       -1.65530000      -2.44500000       1.77640000
C       -0.66390000      -1.90160000       0.74830000
O        0.04150000      -2.77940000      -0.07380000
C       -1.33540000      -0.65940000       0.07430000
H        0.86680000       1.78310000      -0.01910000
H        0.74330000      -0.38610000      -0.72010000
H        0.79850000      -0.63260000       2.17480000
H       -1.71700000       0.82490000       1.80080000
H       -2.93600000      -1.24560000       3.08380000
H       -1.85120000      -3.49160000       1.96390000
H        0.57090000      -3.35780000       0.48510000
H       -2.12300000      -0.67990000      -0.68220000
