19
Properties=species:S:1:pos:R:3 gdb_53288=T pbc="F F F"
C       -0.05090000       1.46710000       0.13440000
C       -0.03410000       0.01270000       0.08180000
C       -0.03040000      -1.19180000       0.05150000
C       -0.01230000      -2.62490000      -0.01020000
C       -0.57320000      -3.46950000       1.12500000
C       -1.30000000      -3.42560000      -0.18580000
C       -2.62210000      -2.73140000      -0.29350000
C       -3.78600000      -3.17020000       0.49070000
O       -3.07330000      -1.98010000       0.83210000
H        0.78080000       1.85720000       0.73210000
H        0.02670000       1.90670000      -0.86660000
H       -0.98080000       1.83240000       0.58430000
H        0.85340000      -3.04550000      -0.51530000
H       -0.03430000      -4.36980000       1.39730000
H       -1.03020000      -2.92840000       1.94460000
H       -1.21390000      -4.29260000      -0.83620000
H       -2.81350000      -2.24190000      -1.24960000
H       -4.79230000      -3.01740000       0.10360000
H       -3.67320000      -3.99660000       1.19100000
