15
Properties=species:S:1:pos:R:3 gdb_27457=T pbc="F F F"
O       -0.09400000       1.36440000       0.01070000
C        0.02240000       0.00740000       0.00260000
C        1.25180000      -0.57920000      -0.00770000
C        1.65920000      -1.97960000      -0.01750000
O        2.85590000      -2.26340000      -0.02590000
C        0.67360000      -3.07510000      -0.01850000
C       -0.67900000      -3.05300000      -0.01070000
C       -1.57270000      -1.93130000       0.00100000
C       -1.27640000      -0.61070000       0.00670000
H        0.78540000       1.76010000       0.00790000
H        2.11650000       0.08370000      -0.00900000
H        1.16530000      -4.04460000      -0.02700000
H       -1.17390000      -4.02160000      -0.01360000
H       -2.62940000      -2.18430000       0.00570000
H       -2.09590000       0.10100000       0.01550000
