21
Properties=species:S:1:pos:R:3 gdb_113973=T pbc="F F F"
C        0.38060000       1.37020000       0.33110000
C       -0.27480000       0.10080000      -0.22350000
C        0.50260000      -0.50210000      -1.37640000
C        1.70180000      -1.39690000      -1.11040000
C        0.42500000      -1.96490000      -1.68700000
O       -0.40230000      -2.74290000      -0.87630000
C        0.03940000      -4.08910000      -0.78380000
C       -0.85460000      -4.84450000       0.08320000
C       -1.57480000      -5.49020000       0.79480000
H        1.38910000       1.16260000       0.70420000
H        0.46710000       2.14340000      -0.44050000
H       -0.20460000       1.78820000       1.15620000
H       -0.38050000      -0.64770000       0.56750000
H       -1.29400000       0.32990000      -0.56000000
H        0.58520000       0.14480000      -2.24710000
H        2.58090000      -1.32070000      -1.74090000
H        1.90680000      -1.63220000      -0.07040000
H        0.43150000      -2.27250000      -2.73430000
H        0.06530000      -4.55180000      -1.78440000
H        1.06750000      -4.12780000      -0.39040000
H       -2.21620000      -6.05600000       1.42420000
