16
Properties=species:S:1:pos:R:3 gdb_26439=T pbc="F F F"
O       -1.03830000      -0.06850000      -0.05250000
C        0.27700000      -0.51550000      -0.27040000
C        1.07590000       0.58840000      -0.96310000
O        0.56870000       1.64430000      -1.25340000
C        0.95360000      -0.86150000       1.02670000
C        2.05470000      -1.63660000       1.32670000
C        2.27960000      -1.52430000       2.72680000
C        1.31100000      -0.68750000       3.23370000
N        0.52440000      -0.27880000       2.18990000
H       -1.08810000       0.79440000      -0.49770000
H        0.29770000      -1.39570000      -0.93590000
H        2.14260000       0.36620000      -1.15680000
H        2.62850000      -2.22160000       0.62350000
H        3.05800000      -2.00910000       3.29550000
H        1.10840000      -0.36490000       4.24210000
H       -0.32180000       0.26350000       2.23830000
