17
Properties=species:S:1:pos:R:3 gdb_60509=T pbc="F F F"
C        0.02680000       1.49890000      -0.07580000
N       -0.03680000       0.04840000       0.00290000
C       -0.01350000      -0.60940000       1.29000000
C        0.38940000       0.10640000       2.54830000
C       -1.04780000      -0.32210000       2.34890000
C       -0.10450000      -0.76270000      -1.08880000
O       -0.15820000      -1.97770000      -1.06380000
C       -0.10070000      -0.07180000      -2.39440000
N       -0.10420000       0.38770000      -3.45510000
H        0.99610000       1.86920000       0.27340000
H       -0.11580000       1.81880000      -1.10740000
H       -0.76300000       1.95350000       0.53150000
H        0.29360000      -1.63990000       1.17640000
H        1.01090000      -0.43840000       3.24980000
H        0.59840000       1.16870000       2.50980000
H       -1.77440000       0.45960000       2.15550000
H       -1.43670000      -1.16290000       2.91130000
