15
Properties=species:S:1:pos:R:3 gdb_28078=T pbc="F F F"
N        0.01020000       1.35790000       0.14530000
C       -0.02350000      -0.02610000       0.02510000
N       -1.11600000      -0.76290000      -0.00680000
C       -0.66100000      -2.05700000      -0.03030000
O       -1.48300000      -3.14190000      -0.07870000
C       -2.82620000      -2.95880000       0.01340000
N       -3.57450000      -3.97340000      -0.04500000
C        0.69980000      -2.12470000      -0.02730000
N        1.10040000      -0.78550000       0.00500000
H        0.62970000       1.81380000      -0.51360000
H       -0.92490000       1.73560000       0.06290000
H       -3.11010000      -1.91220000       0.13110000
H       -4.54600000      -3.68020000       0.04040000
H        1.39360000      -2.94410000      -0.06560000
H        2.04220000      -0.45400000       0.12230000
