15
Properties=species:S:1:pos:R:3 gdb_67697=T pbc="F F F"
O       -0.12300000       1.38400000       0.09430000
C        0.05170000       0.02600000       0.01170000
C        0.05150000      -0.87390000      -1.14910000
O        1.12530000      -1.77440000      -1.17160000
C        1.83300000      -1.62260000       0.07170000
C        0.84180000      -0.90490000       0.99430000
C       -0.47680000      -1.71840000       1.10930000
O       -0.89630000      -2.47630000       1.93720000
C       -1.07000000      -1.04850000      -0.08380000
H        0.61390000       1.81990000      -0.34910000
H       -0.28970000      -0.56430000      -2.12960000
H        2.11680000      -2.61730000       0.42610000
H        2.74370000      -1.02510000      -0.08150000
H        1.24550000      -0.48910000       1.91560000
H       -2.11310000      -0.95010000      -0.35930000
