14
Properties=species:S:1:pos:R:3 gdb_81720=T pbc="F F F"
C        0.00220000       1.63320000      -0.08660000
C        0.03390000       0.11330000      -0.01120000
C        0.69450000      -0.67250000      -1.15880000
O        2.06430000      -0.30120000      -1.17890000
C        1.67460000      -1.35010000      -0.26060000
C        2.31620000      -2.62120000      -0.33590000
N        2.81730000      -3.66310000      -0.34200000
C        1.06020000      -0.58580000       0.93500000
O        1.22910000      -0.61200000       2.11070000
H        0.97200000       2.02210000      -0.40560000
H       -0.76170000       1.97580000      -0.79100000
H       -0.23110000       2.05250000       0.89610000
H       -0.95300000      -0.29940000       0.23490000
H        0.26090000      -1.07200000      -2.06750000
