18
Properties=species:S:1:pos:R:3 gdb_24722=T pbc="F F F"
C       -0.03180000       1.50800000       0.08610000
C        1.38600000       2.08510000      -0.03360000
N        2.11100000       1.42350000      -1.10850000
C        3.17230000       1.90630000      -1.82530000
C        3.70900000       0.86720000      -2.55710000
C        2.95600000      -0.29520000      -2.25310000
C        1.97390000       0.06930000      -1.34690000
C        0.91800000      -0.64970000      -0.67410000
C       -0.02620000      -0.00120000       0.02400000
H       -0.47800000       1.86320000       1.02080000
H       -0.65840000       1.90660000      -0.72610000
H        1.35840000       3.15960000      -0.23470000
H        1.92520000       1.93610000       0.91260000
H        3.45330000       2.94610000      -1.76010000
H        4.53810000       0.94190000      -3.24380000
H        3.09140000      -1.28390000      -2.66560000
H        0.91130000      -1.73090000      -0.76590000
H       -0.83080000      -0.54140000       0.51100000
