21
Properties=species:S:1:pos:R:3 gdb_66830=T pbc="F F F"
C       -0.05570000       1.41570000      -0.01570000
C        0.01470000      -0.07940000       0.05960000
C        0.21110000      -0.99090000      -1.16380000
C        0.95990000      -2.17770000      -0.51820000
C        1.96150000      -1.58160000       0.50220000
C        0.69870000      -0.95350000       1.14250000
C       -0.18280000      -2.12560000       0.56760000
C       -1.02490000      -1.12890000      -0.29250000
C       -2.48370000      -1.03990000      -0.60420000
H        0.94480000       1.86000000      -0.08680000
H       -0.62110000       1.74090000      -0.89610000
H       -0.54610000       1.84310000       0.86690000
H        0.29460000      -0.59270000      -2.16810000
H        1.18410000      -3.05430000      -1.12540000
H        2.39570000      -2.35660000       1.14280000
H        2.75190000      -0.91780000       0.13600000
H        0.66440000      -0.61770000       2.17940000
H       -0.53500000      -2.97880000       1.14350000
H       -3.08500000      -0.92470000       0.30580000
H       -2.69480000      -0.18010000      -1.24990000
H       -2.83990000      -1.93690000      -1.12520000
