18
Properties=species:S:1:pos:R:3 gdb_90638=T pbc="F F F"
C       -0.07570000       1.47010000      -0.05450000
C        0.02570000      -0.04100000       0.07150000
N        1.06450000      -0.62220000      -0.84360000
C        1.82200000      -1.11430000       0.29340000
C        0.83240000      -0.53640000       1.27960000
C        1.00150000      -2.04880000       1.19600000
N       -0.03300000      -2.86950000       0.62450000
C        1.76050000      -2.61470000       2.29100000
N        2.35250000      -3.11170000       3.15340000
H        0.90760000       1.93700000       0.05360000
H       -0.47350000       1.74060000      -1.03730000
H       -0.74440000       1.87770000       0.71190000
H       -0.95790000      -0.50920000      -0.03400000
H        0.70620000      -1.36630000      -1.43780000
H        2.90560000      -1.15040000       0.29920000
H        1.00140000      -0.00190000       2.20540000
H        0.33880000      -3.77370000       0.35030000
H       -0.77360000      -3.03960000       1.29820000
