17
Properties=species:S:1:pos:R:3 gdb_74328=T pbc="F F F"
N        0.05590000       1.32250000       0.15090000
C       -0.02270000      -0.04720000       0.03570000
N       -1.09710000      -0.73190000       0.18080000
C       -0.71990000      -2.13770000       0.03850000
C       -1.29650000      -2.72160000      -1.27490000
C       -2.75640000      -2.71160000      -1.31230000
N       -3.91110000      -2.73230000      -1.34580000
C        0.84100000      -2.15770000       0.03240000
N        1.15410000      -0.74880000      -0.24290000
H        0.71390000       1.76700000      -0.47330000
H       -0.85340000       1.76270000       0.14310000
H       -1.11990000      -2.72660000       0.87040000
H       -0.91610000      -2.14370000      -2.12480000
H       -0.95680000      -3.75630000      -1.40320000
H        1.23350000      -2.47510000       1.00610000
H        1.26020000      -2.81650000      -0.73500000
H        1.99370000      -0.38470000       0.18730000
