23
Properties=species:S:1:pos:R:3 gdb_102618=T pbc="F F F"
C       -0.01330000       1.63320000       0.14410000
C        0.04200000       0.10690000       0.01320000
C       -1.33020000      -0.58690000      -0.08740000
C       -2.04820000      -0.26430000      -1.40590000
O       -3.33490000      -0.86450000      -1.50170000
C       -1.20700000      -2.10540000       0.08470000
C       -0.97980000      -2.56610000       1.51790000
C       -0.60480000      -4.02740000       1.69610000
O       -1.10230000      -1.82180000       2.46540000
H        0.99120000       2.04680000       0.27710000
H       -0.44740000       2.11380000      -0.73810000
H       -0.61040000       1.92880000       1.01360000
H        0.64850000      -0.16860000      -0.86160000
H        0.56210000      -0.29730000       0.88810000
H       -1.95180000      -0.21640000       0.73990000
H       -2.11690000       0.82320000      -1.54710000
H       -1.47620000      -0.66450000      -2.25200000
H       -3.89090000      -0.47080000      -0.82120000
H       -2.13230000      -2.58460000      -0.26410000
H       -0.41060000      -2.51460000      -0.55280000
H       -1.29160000      -4.67790000       1.14390000
H        0.39660000      -4.20350000       1.28580000
H       -0.61090000      -4.28800000       2.75520000
