18
Properties=species:S:1:pos:R:3 gdb_294=T pbc="F F F"
C       -0.35090000       1.59150000      -0.03570000
C        0.04980000       0.12090000       0.01680000
C       -1.16420000      -0.78320000      -0.21200000
C        1.26500000      -0.29690000      -0.87580000
C        1.85440000      -1.08580000       0.32360000
C        0.88250000      -0.32480000       1.26420000
H        0.51300000       2.24490000       0.12730000
H       -0.78620000       1.84970000      -1.00870000
H       -1.09740000       1.82700000       0.73260000
H       -1.61890000      -0.58970000      -1.19060000
H       -0.89080000      -1.84330000      -0.17700000
H       -1.93050000      -0.61240000       0.55310000
H        1.03790000      -0.85790000      -1.78710000
H        1.88430000       0.56360000      -1.14700000
H        1.63260000      -2.15490000       0.27000000
H        2.92350000      -0.97140000       0.51620000
H        1.36570000       0.52580000       1.75470000
H        0.35640000      -0.90770000       2.02590000
