19
Properties=species:S:1:pos:R:3 gdb_89790=T pbc="F F F"
O        0.78250000       0.68620000      -0.69650000
C        0.14760000      -0.21650000       0.15260000
C       -0.10380000       0.14670000       1.64780000
C       -1.45430000      -0.56650000       1.53540000
C       -1.87000000      -1.78020000       2.31390000
C       -2.65010000      -0.49060000       2.43850000
C       -1.38720000      -0.49810000      -0.01630000
C       -2.18690000       0.66890000      -0.52290000
O       -1.76580000       1.79840000      -0.65100000
H        0.20730000       1.46340000      -0.74810000
H        0.69500000      -1.16050000       0.07940000
H        0.60970000      -0.22800000       2.38580000
H       -0.21630000       1.22860000       1.77040000
H       -2.33160000      -2.60470000       1.77990000
H       -1.24280000      -2.08240000       3.14670000
H       -2.55310000       0.08390000       3.35400000
H       -3.64020000      -0.45200000       1.99660000
H       -1.68890000      -1.40650000      -0.54820000
H       -3.25220000       0.44760000      -0.75420000
