15
Properties=species:S:1:pos:R:3 gdb_17752=T pbc="F F F"
O       -0.07740000       1.35260000       0.03410000
C        0.07920000      -0.02100000       0.00470000
C        1.10660000      -0.81070000       0.85870000
C        0.81330000      -1.95920000      -0.14050000
C       -0.70720000      -2.21890000      -0.09300000
C       -1.23170000      -0.83070000       0.00740000
N       -1.03610000      -1.45390000      -1.34540000
C        0.40260000      -0.92890000      -1.24300000
H        0.79040000       1.76280000      -0.04240000
H        2.12270000      -0.41860000       0.72830000
H        0.89610000      -0.96610000       1.92090000
H        1.49660000      -2.78870000      -0.30120000
H       -1.24800000      -3.11360000       0.19080000
H       -2.20520000      -0.53650000       0.37890000
H        0.96740000      -0.66010000      -2.13320000
