18
Properties=species:S:1:pos:R:3 gdb_75775=T pbc="F F F"
C       -0.12390000       1.58550000      -0.08280000
C        0.02370000       0.07420000      -0.00270000
C        1.13240000      -0.58000000      -0.85950000
O        1.40010000      -0.62210000      -2.02990000
N        1.73230000      -1.11760000       0.25450000
C        0.75620000      -0.60090000       1.23690000
C        1.37300000       0.33440000       2.28100000
C       -0.03330000      -1.64880000       1.88070000
C       -0.67740000      -2.50640000       2.42400000
H        0.82800000       2.10320000       0.06190000
H       -0.49790000       1.85750000      -1.07430000
H       -0.83600000       1.95780000       0.66030000
H       -0.93590000      -0.41550000      -0.18690000
H        2.43850000      -1.83400000       0.34990000
H        1.99200000       1.09430000       1.79920000
H        0.59060000       0.82670000       2.86530000
H        2.00010000      -0.23520000       2.97300000
H       -1.25000000      -3.26730000       2.89470000
