16
Properties=species:S:1:pos:R:3 gdb_35957=T pbc="F F F"
N        0.46880000      -1.14900000       0.79860000
C        0.20160000      -0.07420000       0.47360000
C       -0.11710000       1.28900000       0.00800000
O       -0.87960000       1.89650000       1.02950000
C       -1.31680000       3.20810000       0.76380000
O       -0.37780000       4.17090000       1.12110000
C        0.62740000       4.44960000       0.16830000
C        1.43560000       3.29660000      -0.35930000
C        1.15190000       1.99850000      -0.42620000
H       -0.74760000       1.16670000      -0.89410000
H       -1.61340000       3.30760000      -0.29600000
H       -2.18060000       3.36370000       1.41290000
H        0.19040000       4.98050000      -0.69830000
H        1.29790000       5.16280000       0.65880000
H        2.37790000       3.61470000      -0.80310000
H        1.86750000       1.33760000      -0.90840000
