15
Properties=species:S:1:pos:R:3 gdb_43351=T pbc="F F F"
O        0.01920000      -0.02250000      -0.07810000
C       -0.02660000       1.18280000       0.03810000
C       -1.28140000       1.96610000       0.11510000
C       -1.20660000       3.30250000       0.16060000
C        0.16100000       3.96700000       0.18890000
O        0.68940000       4.02760000      -1.13610000
C        1.36690000       2.78520000      -1.34110000
C        1.23200000       2.06020000       0.02800000
O        1.06020000       3.16730000       0.91610000
H       -2.21770000       1.41850000       0.09500000
H       -2.08900000       3.93490000       0.14310000
H        0.14580000       4.97350000       0.61030000
H        0.91300000       2.22540000      -2.16530000
H        2.41600000       2.98950000      -1.57550000
H        2.10800000       1.48320000       0.32120000
