18
Properties=species:S:1:pos:R:3 gdb_78872=T pbc="F F F"
O        0.04550000       1.25790000      -0.16920000
C       -0.05370000      -0.14400000      -0.02400000
C        0.06790000      -0.60250000       1.43700000
C       -1.38420000      -0.43240000       1.65860000
C       -1.54370000      -0.55070000       0.09200000
C       -1.43680000      -2.04600000       0.33390000
C       -2.46360000      -3.11030000       0.17260000
C       -1.13210000      -3.19700000      -0.56490000
N       -0.80860000      -1.80990000       1.66140000
H        0.95650000       1.51430000       0.00660000
H        0.54200000      -0.66860000      -0.78410000
H        0.89530000      -0.47000000       2.12370000
H       -1.97820000      -0.01740000       2.46080000
H       -2.28640000      -0.08840000      -0.55470000
H       -2.61670000      -3.78240000       1.01020000
H       -3.35590000      -2.88940000      -0.40400000
H       -1.12640000      -3.03310000      -1.63800000
H       -0.41400000      -3.93050000      -0.21420000
