18
Properties=species:S:1:pos:R:3 gdb_53966=T pbc="F F F"
C        0.07710000       1.49450000       0.02590000
C       -0.04480000      -0.01440000       0.04010000
O       -0.18050000      -0.64880000       1.06100000
C       -0.01450000      -0.73580000      -1.33260000
C       -1.46180000      -0.87350000      -1.82230000
O        0.66100000       0.03320000      -2.31520000
C        0.65370000      -2.11980000      -1.13120000
C        0.66790000      -2.92870000      -2.34530000
N        0.68000000      -3.57010000      -3.30630000
H        1.10610000       1.78110000      -0.21840000
H       -0.55380000       1.93910000      -0.74810000
H       -0.17970000       1.88530000       1.01090000
H       -1.90430000       0.11470000      -1.97040000
H       -1.47540000      -1.40120000      -2.77900000
H       -2.06280000      -1.42470000      -1.09520000
H        1.60840000       0.01100000      -2.14160000
H        1.68630000      -1.98320000      -0.78580000
H        0.13470000      -2.65060000      -0.32920000
