15
Properties=species:S:1:pos:R:3 gdb_25839=T pbc="F F F"
C       -0.04870000       1.50210000       0.00940000
C        0.03360000      -0.00500000       0.00380000
O        1.08240000      -0.61170000      -0.00660000
C       -1.27040000      -0.77370000       0.01110000
N       -2.41420000      -0.07890000       0.02240000
C       -3.53820000      -0.79550000       0.02860000
N       -3.64290000      -2.12550000       0.02460000
C       -2.49000000      -2.80140000       0.01330000
C       -1.25500000      -2.16650000       0.00610000
H        0.95930000       1.91680000       0.00320000
H       -0.61400000       1.85350000      -0.85930000
H       -0.60120000       1.84780000       0.88850000
H       -4.47020000      -0.23570000       0.03760000
H       -2.56420000      -3.88630000       0.01000000
H       -0.31500000      -2.70270000      -0.00300000
