23
Properties=species:S:1:pos:R:3 gdb_118966=T pbc="F F F"
C       -0.33710000       1.49930000       0.16210000
C       -0.08270000       0.00700000       0.02110000
O       -1.33620000      -0.64080000      -0.11920000
C       -1.35650000      -2.06640000      -0.04110000
C       -0.49850000      -2.72490000      -1.10820000
C       -1.25300000      -2.55360000       1.43700000
C       -2.79360000      -2.40750000       1.56820000
C       -2.88030000      -2.41800000       0.01570000
O       -3.76290000      -1.56640000      -0.65150000
H        0.60970000       2.03980000       0.25430000
H       -0.86900000       1.88190000      -0.71390000
H       -0.94360000       1.70540000       1.04860000
H        0.55190000      -0.18870000      -0.85520000
H        0.45170000      -0.37540000       0.90340000
H        0.56940000      -2.53640000      -0.95650000
H       -0.64650000      -3.80870000      -1.09000000
H       -0.77710000      -2.35680000      -2.10110000
H       -0.92070000      -3.59390000       1.49410000
H       -0.63360000      -1.95470000       2.10780000
H       -3.33880000      -3.18280000       2.11030000
H       -3.07520000      -1.42870000       1.96350000
H       -3.05390000      -3.43200000      -0.35920000
H       -3.37040000      -0.68580000      -0.58110000
