20
Properties=species:S:1:pos:R:3 gdb_71572=T pbc="F F F"
C        0.02740000       1.49980000       0.00480000
C        0.01560000      -0.00540000       0.00830000
C       -1.31220000      -0.78730000      -0.15280000
C       -0.72850000      -2.10270000       0.39890000
C       -1.45420000      -3.41040000       0.28660000
O       -0.41940000      -1.69110000       1.77450000
C        0.62390000      -0.91970000       1.18690000
C        0.81450000      -1.85990000      -0.00190000
N        0.95530000      -0.72400000      -0.91340000
H        1.04550000       1.87930000       0.13170000
H       -0.36500000       1.89930000      -0.93790000
H       -0.59490000       1.89090000       0.81640000
H       -2.13140000      -0.43820000       0.48060000
H       -1.63800000      -0.82280000      -1.19750000
H       -1.61490000      -3.66670000      -0.76570000
H       -0.88050000      -4.21510000       0.75570000
H       -2.43180000      -3.35770000       0.77760000
H        1.38140000      -0.52830000       1.86280000
H        1.49510000      -2.70900000      -0.06010000
H        0.58200000      -0.86990000      -1.85200000
