15
Properties=species:S:1:pos:R:3 gdb_3219=T pbc="F F F"
C       -0.16170000       1.55700000      -0.01850000
C       -0.00970000       0.04390000      -0.01900000
C        0.73880000      -0.60990000      -1.18720000
O        2.09990000      -0.14610000      -1.13210000
C        1.71670000      -1.25340000      -0.29630000
C        1.08000000      -0.60800000       0.94420000
O        1.90450000       0.24060000       1.69170000
H        0.77760000       2.04500000      -0.29220000
H       -0.92620000       1.87490000      -0.73520000
H       -0.45330000       1.91770000       0.97230000
H       -0.97420000      -0.44860000       0.14370000
H        0.37190000      -0.92690000      -2.15670000
H        2.28770000      -2.16910000      -0.39950000
H        0.63680000      -1.32550000       1.63860000
H        2.42660000       0.73970000       1.05060000
