20
Properties=species:S:1:pos:R:3 gdb_16180=T pbc="F F F"
O       -0.06550000       1.37930000       0.48960000
C        0.02460000       0.00780000       0.11500000
C       -1.36480000      -0.51870000      -0.10110000
C       -2.15380000      -1.02810000       1.08280000
C       -1.69030000      -1.99520000       0.01950000
C       -2.67550000      -2.36060000      -1.08260000
C       -3.28160000      -1.01000000      -1.53100000
C       -2.17580000       0.03780000      -1.26770000
H        0.82650000       1.73730000       0.52610000
H        0.61070000      -0.10330000      -0.81290000
H        0.52990000      -0.58380000       0.89590000
H       -1.63620000      -1.05640000       2.03590000
H       -3.20900000      -0.78850000       1.16520000
H       -0.92090000      -2.71330000       0.28530000
H       -2.13090000      -2.83140000      -1.91040000
H       -3.44250000      -3.07220000      -0.75740000
H       -3.60440000      -1.02350000      -2.57540000
H       -4.17000000      -0.77900000      -0.93500000
H       -2.57850000       1.03530000      -1.06900000
H       -1.51640000       0.12710000      -2.14130000
