16
Properties=species:S:1:pos:R:3 gdb_22292=T pbc="F F F"
O       -0.06570000       1.40300000      -0.14170000
N        0.07210000       0.01060000      -0.03370000
C       -1.05360000      -0.58490000       0.05550000
C       -2.39830000       0.09490000       0.10550000
C       -3.37440000      -0.63270000       0.98760000
C       -3.16720000      -1.84460000       1.51610000
C       -1.95240000      -2.63750000       1.23540000
O       -1.72200000      -3.69110000       1.78920000
C       -1.02810000      -2.08480000       0.14700000
H        0.85170000       1.69560000      -0.14670000
H       -2.27480000       1.12600000       0.44890000
H       -2.81660000       0.17910000      -0.91030000
H       -4.29740000      -0.10180000       1.20990000
H       -3.88950000      -2.30940000       2.17940000
H       -1.39680000      -2.51150000      -0.79950000
H       -0.01340000      -2.45510000       0.29820000
