18
Properties=species:S:1:pos:R:3 gdb_79595=T pbc="F F F"
C       -0.10520000       1.53420000       0.00120000
N        0.15330000       0.10240000      -0.01230000
C        1.47580000      -0.45080000      -0.19000000
C        2.58590000       0.30340000       0.52140000
C        3.15870000      -0.51850000       1.62070000
C        1.80630000       0.13120000       1.86670000
C        1.64700000       1.16930000       2.90230000
O        2.55840000       1.80320000       3.38350000
C        0.71520000      -0.61450000       1.11600000
H        0.67060000       2.14040000       0.48850000
H       -0.20690000       1.87800000      -1.03290000
H       -1.05580000       1.71390000       0.51260000
H        1.62940000      -1.18190000      -0.97670000
H        3.05320000       1.22620000       0.19860000
H        3.19620000      -1.60030000       1.52850000
H        3.97290000      -0.06900000       2.18030000
H        0.59540000       1.34500000       3.22300000
H        0.18510000      -1.48760000       1.48210000
