21
Properties=species:S:1:pos:R:3 gdb_61458=T pbc="F F F"
C       -0.25450000       1.40880000       0.00990000
C       -0.03170000      -0.09990000      -0.01200000
O        0.64170000      -0.46610000      -1.24960000
C       -0.13550000      -0.69170000      -2.32730000
C        0.71130000      -1.06410000      -3.52220000
O       -1.33920000      -0.60790000      -2.32710000
C        0.83490000      -0.59490000       1.11510000
C        0.19250000      -0.97360000       2.42670000
C        0.77350000      -2.04010000       1.53390000
H        0.69910000       1.93980000      -0.07400000
H       -0.90280000       1.71120000      -0.81570000
H       -0.73060000       1.70230000       0.95020000
H       -0.99710000      -0.61470000      -0.00010000
H        0.06610000      -1.26280000      -4.37710000
H        1.40260000      -0.24990000      -3.75820000
H        1.31570000      -1.94640000      -3.29410000
H        1.80730000      -0.11310000       1.17260000
H        0.71390000      -0.72160000       3.34310000
H       -0.88830000      -0.90870000       2.50060000
H        0.08350000      -2.68930000       1.00510000
H        1.69430000      -2.52450000       1.83850000
