21
Properties=species:S:1:pos:R:3 gdb_54142=T pbc="F F F"
C       -0.26420000       1.46470000      -0.03110000
C        0.11620000      -0.00260000       0.03590000
O        0.43700000      -0.53130000       1.08150000
C        0.07310000      -0.76640000      -1.25900000
O       -0.01050000       0.03360000      -2.41030000
C        0.81170000      -2.09010000      -1.34040000
C       -0.69190000      -2.10580000      -1.33140000
C       -1.41420000      -2.64090000      -0.10940000
C       -1.40790000      -2.39530000      -2.63860000
H        0.47350000       2.02450000      -0.61600000
H       -1.22240000       1.59530000      -0.54260000
H       -0.30790000       1.86750000       0.98120000
H        0.88110000       0.30670000      -2.65110000
H        1.32060000      -2.29640000      -2.27690000
H        1.33420000      -2.39100000      -0.43880000
H       -0.88900000      -2.40260000       0.81520000
H       -2.43030000      -2.23460000      -0.04640000
H       -1.50110000      -3.73080000      -0.18610000
H       -1.48760000      -3.47870000      -2.78270000
H       -2.42440000      -1.98680000      -2.62460000
H       -0.88710000      -1.96560000      -3.49450000
