21
Properties=species:S:1:pos:R:3 gdb_100290=T pbc="F F F"
C        0.15890000       1.45120000      -0.30740000
C        0.00690000      -0.02060000       0.06500000
O        0.77870000      -0.36180000       1.21810000
C       -1.45990000      -0.51420000       0.23220000
O       -2.20090000      -0.19370000      -0.94480000
C       -1.47090000      -2.04560000       0.40850000
O       -1.16920000      -2.69450000      -0.82840000
C       -2.20550000       0.15120000       1.39880000
O       -2.52270000       1.50500000       1.14190000
H        1.21490000       1.67800000      -0.48180000
H       -0.40430000       1.67220000      -1.21660000
H       -0.22650000       2.10010000       0.48390000
H        0.43960000      -0.61800000      -0.75050000
H        0.71990000       0.37240000       1.83800000
H       -2.05660000      -0.93260000      -1.55300000
H       -0.77890000      -2.34300000       1.20230000
H       -2.48070000      -2.37380000       0.67250000
H       -0.21270000      -2.73620000      -0.92300000
H       -3.11850000      -0.42930000       1.60550000
H       -1.58960000       0.12710000       2.30360000
H       -2.91310000       1.51700000       0.25910000
