15
Properties=species:S:1:pos:R:3 gdb_2269=T pbc="F F F"
C       -0.06860000       1.56250000      -0.03340000
C        0.09130000       0.05950000       0.03660000
O        1.16410000      -0.46300000      -0.81110000
C        1.68480000      -1.22570000       0.27860000
C        2.18620000      -0.31260000       1.36760000
C        0.70980000      -0.63370000       1.25770000
O       -0.02360000      -1.24130000       2.25640000
H        0.84290000       2.07930000       0.27900000
H       -0.30330000       1.87300000      -1.05640000
H       -0.89320000       1.88200000       0.61330000
H       -0.84620000      -0.44670000      -0.22930000
H        2.03210000      -2.23370000       0.08840000
H        2.67000000      -0.82690000       2.19330000
H        2.59460000       0.66290000       1.11860000
H       -0.02010000      -0.66600000       3.02910000
