17
Properties=species:S:1:pos:R:3 gdb_74713=T pbc="F F F"
C       -0.03320000       1.48670000      -0.05370000
C        0.06690000       0.00210000      -0.04760000
C        0.07540000      -0.90720000      -1.04230000
C        0.03010000      -2.25280000      -0.33490000
C        1.01560000      -2.00740000       0.84930000
C        0.02200000      -0.84890000       1.21750000
O       -0.00120000      -0.15940000       2.41310000
C       -1.08600000      -1.87220000       0.71850000
O       -2.16840000      -2.22530000       1.05450000
H        0.80120000       1.94580000       0.48870000
H       -0.04190000       1.87590000      -1.07530000
H       -0.94840000       1.81770000       0.45130000
H       -0.01130000      -0.74510000      -2.10750000
H        0.01500000      -3.17510000      -0.90750000
H        1.03480000      -2.82000000       1.58420000
H        2.02060000      -1.68560000       0.56710000
H       -0.36850000      -0.73420000       3.09310000
