21
Properties=species:S:1:pos:R:3 gdb_1096=T pbc="F F F"
C       -0.15060000       1.55960000       0.01180000
C        0.02740000       0.04840000       0.00200000
O       -1.26200000      -0.53180000       0.01120000
C       -1.37220000      -1.96310000       0.00460000
C       -0.73050000      -2.57550000       1.26090000
C       -2.88570000      -2.20270000       0.01780000
C       -0.75480000      -2.56190000      -1.27020000
H        0.82280000       2.05990000       0.00520000
H       -0.71550000       1.88410000      -0.86670000
H       -0.69860000       1.87470000       0.90440000
H        0.59550000      -0.25480000      -0.89040000
H        0.61240000      -0.26420000       0.88020000
H       -1.12700000      -2.09640000       2.16120000
H       -0.95070000      -3.64610000       1.31580000
H        0.35780000      -2.46480000       1.26150000
H       -3.34780000      -1.74370000      -0.86060000
H       -3.11320000      -3.27280000       0.01430000
H       -3.33080000      -1.75320000       0.90990000
H        0.33330000      -2.45110000      -1.29060000
H       -0.97600000      -3.63190000      -1.33240000
H       -1.16850000      -2.07330000      -2.15760000
