25
Properties=species:S:1:pos:R:3 gdb_123257=T pbc="F F F"
C       -0.54890000       1.93090000      -0.66480000
C       -0.41530000       0.41640000      -0.84090000
C       -1.15110000      -0.36190000       0.24100000
O       -0.97860000      -1.74340000       0.00720000
C       -1.62470000      -2.55650000       0.95820000
C       -1.35650000      -4.00690000       0.58670000
O       -2.00260000      -4.82040000       1.53740000
C       -1.82860000      -6.20220000       1.30120000
C       -2.56450000      -6.97590000       2.38190000
H       -0.01280000       2.46700000      -1.45310000
H       -1.59740000       2.24690000      -0.70310000
H       -0.13960000       2.25920000       0.29700000
H       -0.80810000       0.11060000      -1.81740000
H        0.64060000       0.12280000      -0.82350000
H       -0.76340000      -0.09170000       1.23910000
H       -2.22490000      -0.10440000       0.23610000
H       -1.24800000      -2.35900000       1.97500000
H       -2.71130000      -2.37200000       0.96960000
H       -1.73310000      -4.20420000      -0.43030000
H       -0.26980000      -4.19120000       0.57520000
H       -2.21520000      -6.46820000       0.30250000
H       -0.75470000      -6.45580000       1.30600000
H       -2.17090000      -6.72280000       3.37050000
H       -3.63140000      -6.73540000       2.36690000
H       -2.44840000      -8.05260000       2.22650000
