16
Properties=species:S:1:pos:R:3 gdb_55376=T pbc="F F F"
O       -0.20660000      -0.02460000       0.19050000
C       -0.05460000       1.28130000      -0.04390000
O        1.00940000       1.81740000      -0.19750000
C       -1.38420000       2.05880000      -0.06000000
N       -2.53270000       1.14820000      -0.23170000
H       -2.76340000       1.00410000      -1.20660000
H       -1.17690000      -0.15860000       0.26020000
C       -3.68620000       1.63760000       0.55110000
C       -3.04620000       2.44650000       1.65700000
O       -1.97160000       1.76460000       2.31200000
C       -1.65450000       2.71330000       1.28720000
H       -1.30000000       2.84410000      -0.82230000
H       -4.35420000       2.29510000      -0.02550000
H       -4.27690000       0.79460000       0.92520000
H       -3.64480000       3.10810000       2.27600000
H       -1.08390000       3.58440000       1.59020000
