25
Properties=species:S:1:pos:R:3 gdb_112727=T pbc="F F F"
C        0.03110000       1.62070000       0.00510000
C       -0.11140000       0.09450000      -0.01800000
C        0.66890000      -0.55210000      -1.15540000
C        2.22250000      -0.58320000      -1.12350000
C        2.17320000      -1.97280000      -1.81360000
C        3.20710000      -3.03150000      -1.46050000
C        0.67960000      -2.09600000      -1.34890000
C        0.47160000      -2.90970000      -0.07450000
O       -0.25300000      -2.49080000      -2.34360000
H        1.07820000       1.92000000       0.12350000
H       -0.33570000       2.06510000      -0.92680000
H       -0.53600000       2.06160000       0.83090000
H        0.22380000      -0.31390000       0.94390000
H       -1.17230000      -0.17110000      -0.11310000
H        0.33940000      -0.12550000      -2.11010000
H        2.76070000       0.21730000      -1.63570000
H        2.60440000      -0.65490000      -0.09820000
H        2.14360000      -1.83080000      -2.89950000
H        3.27460000      -3.19180000      -0.37930000
H        2.97350000      -3.99580000      -1.92730000
H        4.20220000      -2.73410000      -1.80980000
H        1.14070000      -2.59740000       0.73250000
H       -0.55930000      -2.80540000       0.27570000
H        0.66310000      -3.97400000      -0.26070000
H       -0.26150000      -3.45320000      -2.38630000
