12
Properties=species:S:1:pos:R:3 gdb_42523=T pbc="F F F"
O       -0.01830000       0.04250000      -0.33790000
C        0.09600000       1.20760000      -0.18120000
C       -0.84820000       2.43670000      -0.06720000
O        0.32890000       3.28970000       0.05970000
C        1.27840000       2.21290000      -0.02000000
C        2.09750000       2.05450000       1.17620000
N        2.73530000       1.91080000       2.12900000
C       -1.68390000       2.72990000      -1.20800000
C       -2.37210000       2.95030000      -2.16760000
H       -1.42650000       2.43040000       0.86650000
H        1.91610000       2.28350000      -0.91030000
H       -2.98610000       3.15110000      -3.01160000
