19
Properties=species:S:1:pos:R:3 gdb_52995=T pbc="F F F"
C        0.00940000       1.48750000      -0.02490000
C       -0.00530000       0.03240000      -0.02410000
C       -0.02290000      -1.17380000      -0.02570000
C       -0.01160000      -2.59380000      -0.00530000
C       -0.42250000      -3.47230000      -1.18710000
C       -1.12510000      -3.63560000       0.11480000
O       -0.37360000      -4.45480000       1.00200000
C        0.69990000      -3.46630000       1.04780000
C        2.07560000      -4.03740000       0.78420000
H        0.85010000       1.87280000       0.56310000
H        0.10840000       1.88660000      -1.04070000
H       -0.91000000       1.89990000       0.40620000
H       -0.96580000      -2.92880000      -1.95290000
H        0.22940000      -4.26230000      -1.54820000
H       -2.18980000      -3.52980000       0.28740000
H        0.66940000      -2.96230000       2.02140000
H        2.13870000      -4.50030000      -0.20390000
H        2.82600000      -3.24250000       0.84740000
H        2.31830000      -4.79660000       1.53450000
