20
Properties=species:S:1:pos:R:3 gdb_90673=T pbc="F F F"
O        0.12460000       1.19390000      -0.46620000
C        0.02280000      -0.16980000      -0.13100000
C        0.21340000      -0.51360000       1.37060000
N       -1.22450000      -0.94760000       1.52710000
C       -1.40030000      -0.71360000       0.02370000
C       -1.40700000      -2.06850000       0.60430000
C       -0.48370000      -3.25930000       0.29590000
C       -1.76420000      -4.09630000      -0.00050000
C       -2.62850000      -2.99010000       0.67200000
H       -0.44010000       1.69250000       0.13570000
H        0.66330000      -0.69240000      -0.84790000
H        0.94390000      -1.28600000       1.63340000
H        0.40740000       0.37930000       1.97120000
H       -2.28940000      -0.24390000      -0.39050000
H        0.24010000      -3.14830000      -0.51540000
H        0.04250000      -3.61040000       1.18950000
H       -1.95980000      -4.18240000      -1.07180000
H       -1.80930000      -5.09230000       0.44330000
H       -2.88970000      -3.22550000       1.70750000
H       -3.53020000      -2.66600000       0.14690000
