17
Properties=species:S:1:pos:R:3 gdb_20975=T pbc="F F F"
C        0.01650000       1.39950000       0.08040000
N       -0.01120000      -0.00860000      -0.26160000
C        1.18780000      -0.76120000       0.06530000
C       -1.22050000      -0.67130000      -0.11120000
N       -1.26220000      -1.99860000       0.03070000
N       -2.58710000      -2.28800000       0.07920000
C       -3.37090000      -1.19350000      -0.00530000
C       -2.52930000      -0.11010000      -0.12810000
H        0.97370000       1.82340000      -0.23590000
H       -0.77320000       1.93700000      -0.45110000
H       -0.10370000       1.59170000       1.16060000
H        1.30860000      -0.92830000       1.14850000
H        1.14760000      -1.73760000      -0.41890000
H        2.06130000      -0.21480000      -0.30210000
H       -2.86740000      -3.24560000       0.19220000
H       -4.44740000      -1.25930000       0.02630000
H       -2.81910000       0.92250000      -0.21830000
