21
Properties=species:S:1:pos:R:3 gdb_84275=T pbc="F F F"
C       -0.13460000       1.57280000      -0.06990000
C        0.03480000       0.05260000      -0.00790000
C        0.85500000      -0.52350000      -1.17100000
C        1.47120000      -1.61900000      -0.74900000
C        2.76770000      -2.38400000      -0.68690000
O        2.71440000      -2.27840000       0.77040000
C        1.30180000      -1.86440000       0.71230000
C        0.80190000      -0.50730000       1.26210000
C        1.95730000       0.37990000       1.73330000
H        0.82730000       2.08900000      -0.14290000
H       -0.73020000       1.85540000      -0.94440000
H       -0.65330000       1.94880000       0.81820000
H       -0.97410000      -0.38650000      -0.00680000
H        0.96460000      -0.01740000      -2.12360000
H        2.72870000      -3.43450000      -1.00420000
H        3.65440000      -1.90430000      -1.11550000
H        0.66980000      -2.70720000       1.02340000
H        0.10100000      -0.64730000       2.09300000
H        2.66820000       0.57620000       0.92550000
H        1.59140000       1.33900000       2.11010000
H        2.50800000      -0.11440000       2.53800000
