10
Properties=species:S:1:pos:R:3 gdb_21435=T pbc="F F F"
N       -0.21540000       1.28100000       0.01130000
C       -0.02970000       0.04710000       0.00320000
O        1.14730000      -0.67030000      -0.00690000
N        0.84950000      -2.04140000      -0.01340000
C       -0.43310000      -2.08710000      -0.00710000
O       -1.04680000      -0.87780000       0.00300000
C       -1.28350000      -3.31000000      -0.00990000
O       -0.83300000      -4.42240000      -0.01880000
H        0.66260000       1.79350000       0.00980000
H       -2.36750000      -3.08530000      -0.00320000
