15
Properties=species:S:1:pos:R:3 gdb_133195=T pbc="F F F"
C       -0.03250000       1.49710000      -0.02000000
C       -0.00760000      -0.00200000      -0.01410000
N       -0.03820000      -0.64260000      -1.14370000
N       -0.01480000      -1.98610000      -1.10710000
C        0.03980000      -2.83010000       0.01470000
N        0.05980000      -4.11240000      -0.01880000
C        0.07290000      -2.08430000       1.25980000
C        0.04960000      -0.74060000       1.22400000
F        0.07830000      -0.01720000       2.34340000
H        0.85860000       1.90900000       0.46570000
H       -0.07530000       1.85490000      -1.04940000
H       -0.89980000       1.88000000       0.52870000
H       -0.04100000      -2.41210000      -2.02160000
H        0.03080000      -4.46730000      -0.97580000
H        0.11580000      -2.63950000       2.18690000
