15
Properties=species:S:1:pos:R:3 gdb_44167=T pbc="F F F"
O       -0.33810000       0.17110000      -0.01600000
C       -0.10580000       1.33140000       0.06330000
O       -1.00510000       2.35390000       0.36720000
C        0.01830000       3.34580000       0.08450000
C        1.12930000       3.23180000       1.05910000
C        0.95460000       2.81020000       2.51280000
C        0.77880000       3.96280000       3.38970000
C        0.64400000       4.92990000       4.08970000
C        1.05670000       2.26640000      -0.14000000
H       -0.27490000       4.19450000      -0.51650000
H        1.90770000       3.97670000       0.90690000
H        0.09060000       2.14340000       2.60090000
H        1.83210000       2.23340000       2.82900000
H        0.51600000       5.77430000       4.72100000
H        1.85290000       2.15800000      -0.86170000
