17
Properties=species:S:1:pos:R:3 gdb_37114=T pbc="F F F"
C       -0.05160000       1.57960000       0.01850000
C        1.41380000       2.00390000       0.08750000
C        2.27250000       0.98400000      -0.03220000
C        1.53030000      -0.30150000      -0.13710000
N        0.69090000      -0.62480000       1.02920000
C        0.05370000       0.06750000      -0.08940000
C       -0.19770000      -0.85750000      -1.26780000
N        0.65290000      -0.38830000      -2.38960000
C        1.25490000      -1.22010000      -1.31640000
H       -0.61320000       1.90570000       0.90120000
H       -0.54680000       2.00470000      -0.86230000
H        1.70220000       3.03750000       0.25360000
H        3.35230000       1.06790000      -0.01880000
H        0.43690000      -1.61070000       1.03410000
H       -1.06580000      -1.47950000      -1.45760000
H        0.47320000      -1.00460000      -3.18560000
H        1.71610000      -2.17250000      -1.55210000
