20
Properties=species:S:1:pos:R:3 gdb_93233=T pbc="F F F"
C        0.03620000       1.54000000       0.04710000
C        0.03940000       0.02040000      -0.00220000
C        0.77410000      -0.52410000      -1.22470000
N        0.95090000      -1.96820000      -1.14540000
C        1.33900000      -2.65410000      -2.36540000
C        0.90870000      -2.66210000       0.03130000
O        1.08810000      -3.86540000       0.11740000
C        0.57300000      -1.85660000       1.28650000
O        0.68420000      -0.45420000       1.16870000
H        1.06030000       1.92200000       0.09610000
H       -0.45190000       1.95690000      -0.83880000
H       -0.50020000       1.88400000       0.93450000
H       -0.99960000      -0.35310000      -0.02160000
H        0.20160000      -0.29220000      -2.13230000
H        1.75060000      -0.02420000      -1.31820000
H        2.28710000      -2.25810000      -2.75210000
H        1.45470000      -3.71260000      -2.13660000
H        0.57250000      -2.52600000      -3.13900000
H       -0.44480000      -2.15000000       1.59400000
H        1.26000000      -2.17730000       2.07240000
