13
Properties=species:S:1:pos:R:3 gdb_132936=T pbc="F F F"
F        0.06450000       0.01200000       0.00340000
C        0.00530000       1.34600000       0.01100000
C       -1.16460000       1.99820000       0.02900000
N       -1.19150000       3.37890000       0.03630000
C       -0.05130000       4.17330000       0.02620000
O       -0.09370000       5.38350000       0.03250000
N        1.12120000       3.44280000       0.00740000
C        1.28010000       2.05300000      -0.00160000
N        2.45450000       1.55510000      -0.01900000
H       -2.11650000       1.48380000       0.03830000
H       -2.06400000       3.88080000       0.04980000
H        1.97320000       3.98650000      -0.00070000
H        2.39710000       0.53790000      -0.02340000
