17
Properties=species:S:1:pos:R:3 gdb_8301=T pbc="F F F"
C       -0.00320000       1.36890000      -0.13450000
O       -0.03120000      -0.04000000      -0.13640000
C       -1.30260000      -0.56950000       0.16650000
C       -1.19790000      -2.08100000       0.10470000
C       -2.53760000      -2.87260000       0.08920000
C       -2.11600000      -3.33360000      -1.33230000
O       -2.58610000      -4.02580000      -2.19330000
N       -0.94580000      -2.62030000      -1.23530000
H        1.01620000       1.67590000      -0.37960000
H       -0.69250000       1.79140000      -0.88220000
H       -0.27180000       1.77990000       0.85120000
H       -1.63110000      -0.25640000       1.17280000
H       -2.05580000      -0.21520000      -0.55800000
H       -0.47200000      -2.42940000       0.84740000
H       -2.61960000      -3.67780000       0.82050000
H       -3.44330000      -2.26260000       0.10950000
H       -0.19150000      -2.45780000      -1.88540000
