17
Properties=species:S:1:pos:R:3 gdb_77872=T pbc="F F F"
C       -0.02690000       1.58080000       0.02620000
C        0.04910000       0.08230000      -0.00060000
C       -0.83510000      -0.82680000       0.86480000
O       -1.68640000      -1.80690000       0.37550000
C        0.62810000      -0.98810000       1.03320000
C        1.18720000      -1.81620000      -0.11610000
O        0.69450000      -3.15070000      -0.17480000
C        0.61840000      -0.74890000      -1.09750000
O        0.76230000      -0.59170000      -2.27940000
H        0.93940000       2.03840000      -0.20930000
H       -0.75130000       1.93490000      -0.71490000
H       -0.34770000       1.94470000       1.00700000
H       -1.32170000      -0.25080000       1.65000000
H       -1.14170000      -2.57190000       0.13560000
H        1.15630000      -0.78740000       1.95710000
H        2.28510000      -1.80070000      -0.15890000
H        0.89380000      -3.49740000      -1.05280000
