14
Properties=species:S:1:pos:R:3 gdb_132661=T pbc="F F F"
N       -0.00190000       1.40170000       0.09670000
C       -0.00970000       0.00490000       0.02740000
N       -1.15530000      -0.64770000       0.08700000
C       -1.11870000      -1.99000000       0.05450000
C        0.09400000      -2.64050000      -0.06130000
F        0.13380000      -3.96980000      -0.12300000
N        1.25940000      -2.01740000      -0.10160000
C        1.22690000      -0.69340000      -0.04520000
N        2.41430000       0.01540000      -0.10700000
H        0.60090000       1.83260000      -0.59540000
H       -0.94270000       1.77210000       0.03920000
H       -2.05470000      -2.53360000       0.10930000
H        3.22900000      -0.56880000       0.02510000
H        2.42790000       0.85170000       0.46270000
