16
Properties=species:S:1:pos:R:3 gdb_11770=T pbc="F F F"
N        0.00560000      -1.13820000      -0.07310000
C       -0.00490000       0.01680000      -0.03310000
C        0.02400000       1.46370000       0.02590000
C       -0.28010000       2.26120000       1.32790000
C        0.42590000       3.39150000       0.51830000
C        1.35970000       2.27550000      -0.03860000
C       -0.56380000       3.57040000      -0.64500000
N       -0.88150000       2.13380000      -0.94010000
H       -1.33400000       2.37810000       1.58560000
H        0.30440000       1.91250000       2.17910000
H        0.81610000       4.28830000       0.99590000
H        2.10370000       1.93880000       0.68470000
H        1.80870000       2.40990000      -1.02630000
H       -1.46880000       4.11200000      -0.35180000
H       -0.11680000       4.08190000      -1.50360000
H       -0.60160000       1.89590000      -1.88700000
