19
Properties=species:S:1:pos:R:3 gdb_82470=T pbc="F F F"
C       -0.03860000       1.54460000       0.03520000
C        0.10080000       0.02510000       0.01100000
C        1.04230000      -0.61200000      -1.04390000
C        2.42690000       0.00890000      -0.71940000
C        2.30070000      -0.80760000       0.57600000
O        3.30010000      -1.00290000       1.51180000
C        1.47450000      -1.89320000      -0.16750000
O        0.56350000      -2.05660000       0.91880000
C        0.84630000      -0.64880000       1.18490000
H        0.90440000       2.05920000       0.23610000
H       -0.42580000       1.91840000      -0.91860000
H       -0.74370000       1.84510000       0.81760000
H       -0.89370000      -0.42770000      -0.04540000
H        0.69420000      -0.70760000      -2.07010000
H        3.21510000      -0.41420000      -1.35310000
H        2.53510000       1.09410000      -0.68700000
H        4.09890000      -1.28570000       1.05420000
H        1.82880000      -2.80580000      -0.64570000
H        0.67120000      -0.34500000       2.21640000
