18
Properties=species:S:1:pos:R:3 gdb_58372=T pbc="F F F"
C        0.07930000       1.54960000      -0.03190000
C        0.00240000       0.02830000       0.07450000
O        0.69100000      -0.46450000       1.21140000
C       -1.46320000      -0.49870000       0.05500000
C       -1.44990000      -2.04840000      -0.04270000
C       -2.78330000      -2.63750000      -0.10840000
N       -3.83960000      -3.10060000      -0.17610000
C       -2.17740000      -0.05210000       1.24830000
C       -2.71050000       0.30590000       2.26500000
H        1.12430000       1.86720000       0.00390000
H       -0.36070000       1.90360000      -0.96990000
H       -0.45830000       2.02460000       0.79520000
H        0.51870000      -0.41960000      -0.78290000
H        0.24640000      -0.10640000       1.99080000
H       -1.96280000      -0.09900000      -0.83600000
H       -0.89370000      -2.34490000      -0.93890000
H       -0.90940000      -2.44990000       0.81910000
H       -3.22050000       0.61900000       3.14300000
