18
Properties=species:S:1:pos:R:3 gdb_83127=T pbc="F F F"
C       -0.20250000       1.56700000      -0.01300000
C        0.03890000       0.07930000       0.00810000
C       -0.78580000      -0.82420000       0.95550000
O       -1.32550000      -2.03760000       0.55530000
C        0.68760000      -0.72270000       1.13630000
N        1.37290000      -1.89580000       0.58860000
C        1.30420000      -1.83700000      -0.88430000
C        0.50490000      -0.57730000      -1.24900000
O        0.34660000      -0.16100000      -2.37000000
H        0.72350000       2.12210000      -0.19630000
H       -0.90340000       1.81830000      -0.81490000
H       -0.62350000       1.91570000       0.93470000
H       -1.43250000      -0.26020000       1.62380000
H       -0.64250000      -2.70060000       0.74490000
H        1.13620000      -0.26570000       2.01130000
H        2.33130000      -1.91850000       0.90760000
H        2.29580000      -1.76900000      -1.34400000
H        0.80310000      -2.71480000      -1.30810000
