20
Properties=species:S:1:pos:R:3 gdb_126564=T pbc="F F F"
C       -0.01340000       1.58380000       0.07300000
C       -0.03090000       0.05490000       0.01660000
C        0.73460000      -0.50330000      -1.19920000
C        0.72210000      -1.99800000      -1.27190000
N        1.69130000      -2.74100000      -0.73040000
N        1.30220000      -3.98380000      -0.98040000
N        0.16310000      -4.12610000      -1.64550000
C       -0.23670000      -2.86780000      -1.84540000
C       -1.50090000      -2.54870000      -2.57540000
H        1.01150000       1.96570000       0.13800000
H       -0.47150000       2.01970000      -0.82210000
H       -0.56320000       1.95600000       0.94300000
H        0.41140000      -0.36030000       0.92960000
H       -1.06750000      -0.30390000      -0.01160000
H        0.29980000      -0.09030000      -2.11820000
H        1.77450000      -0.16170000      -1.15920000
H        1.85220000      -4.77800000      -0.69770000
H       -2.22940000      -2.05210000      -1.92500000
H       -1.31510000      -1.87970000      -3.42290000
H       -1.95360000      -3.46660000      -2.95550000
