18
Properties=species:S:1:pos:R:3 gdb_50983=T pbc="F F F"
N       -2.32530000       0.57690000      -1.84330000
C       -2.12660000      -0.59950000      -1.43470000
O       -1.47260000      -0.80460000      -0.26880000
C       -1.20540000      -2.14680000       0.07870000
C       -0.00650000      -2.74550000      -0.64810000
C        1.24780000      -2.06070000      -0.35400000
C        2.27880000      -1.49750000      -0.10460000
C       -1.44610000      -2.46600000       1.51750000
C       -2.37710000      -3.01860000       0.45570000
H       -2.84140000       0.55550000      -2.72040000
H       -2.44830000      -1.52770000      -1.92440000
H        0.07420000      -3.80320000      -0.37000000
H       -0.19140000      -2.72990000      -1.73050000
H        3.18680000      -0.99200000       0.11270000
H       -0.75610000      -3.14060000       2.01130000
H       -1.81870000      -1.65790000       2.13500000
H       -3.36570000      -2.57960000       0.38650000
H       -2.33360000      -4.07630000       0.21890000
