18
Properties=species:S:1:pos:R:3 gdb_36627=T pbc="F F F"
C        0.10060000      -1.24490000      -0.06680000
C        0.01860000      -0.04570000      -0.05740000
C       -0.04880000       1.41020000      -0.04310000
C        1.34220000       2.05330000       0.09520000
C        1.28830000       3.54760000       0.11130000
N        0.24760000       4.27040000       0.02460000
C        0.69940000       5.66800000       0.08640000
C        2.24170000       5.57590000       0.22870000
O        2.50220000       4.15470000       0.23290000
H        0.15630000      -2.30490000      -0.07690000
H       -0.52610000       1.77700000      -0.95820000
H       -0.68740000       1.75250000       0.77830000
H        1.83340000       1.71090000       1.01300000
H        1.99490000       1.73550000      -0.72580000
H        0.39240000       6.20060000      -0.81980000
H        0.22910000       6.17570000       0.93520000
H        2.78680000       6.02250000      -0.60760000
H        2.62200000       5.99760000       1.16330000
