18
Properties=species:S:1:pos:R:3 gdb_14518=T pbc="F F F"
C        0.06070000       1.37150000       0.13710000
O       -0.17050000       0.00680000      -0.15190000
C        0.58420000      -0.52390000      -1.21300000
C        0.21590000       0.07180000      -2.56260000
C        2.09750000      -0.87010000      -0.94310000
C        1.66510000      -1.90120000       0.12600000
C        0.76930000      -2.06840000      -1.12390000
O        1.97780000      -1.93120000      -1.96830000
H        1.12670000       1.57710000       0.31420000
H       -0.29350000       2.03610000      -0.66200000
H       -0.49570000       1.59920000       1.04940000
H        0.49550000       1.12820000      -2.62350000
H        0.72940000      -0.46290000      -3.36080000
H       -0.86600000       0.00230000      -2.71390000
H        2.98540000      -0.23770000      -0.98650000
H        2.37770000      -2.71220000       0.27650000
H        1.20460000      -1.54000000       1.04390000
H        0.06360000      -2.85960000      -1.37950000
