16
Properties=species:S:1:pos:R:3 gdb_67332=T pbc="F F F"
C       -0.11810000       1.48140000       0.04750000
C       -0.07600000      -0.01150000       0.10440000
C        0.63280000      -1.05230000      -0.84950000
O        1.87580000      -1.04800000      -0.09830000
C        0.85750000      -0.96130000       0.93520000
C       -0.14740000      -1.90550000       0.20830000
N       -1.24350000      -0.91660000       0.34420000
C       -2.43490000      -0.95820000      -0.33000000
O       -3.00120000      -1.97290000      -0.67360000
H        0.90020000       1.85920000      -0.08560000
H       -0.72700000       1.83600000      -0.78970000
H       -0.52630000       1.89760000       0.97340000
H        0.66530000      -1.11940000      -1.93730000
H        1.15700000      -0.91720000       1.98140000
H       -0.28620000      -2.98010000       0.28120000
H       -2.87440000       0.05250000      -0.45510000
