16
Properties=species:S:1:pos:R:3 gdb_17231=T pbc="F F F"
O       -0.23080000       0.42140000      -0.76200000
C        0.15370000       1.08150000       0.17830000
C        1.38570000       1.87660000       0.19020000
C        1.93430000       2.81770000       1.26190000
C        2.82790000       3.41010000       0.13950000
C        3.78410000       2.23710000      -0.23330000
C        2.54380000       1.54450000      -0.79150000
C        1.81720000       2.83650000      -0.93260000
H       -0.43960000       1.13470000       1.12030000
H        1.17050000       3.52790000       1.59140000
H        2.44300000       2.39200000       2.13440000
H        3.19110000       4.43350000       0.19520000
H        4.47010000       2.51490000      -1.03760000
H        4.33920000       1.76090000       0.58220000
H        2.45480000       0.66210000      -1.41040000
H        1.21010000       3.25860000      -1.71990000
