18
Properties=species:S:1:pos:R:3 gdb_68261=T pbc="F F F"
C       -0.02530000       1.47380000       0.05090000
C        0.04540000      -0.02710000       0.01640000
C        0.69860000      -0.95040000      -1.06080000
C        0.08290000      -1.92740000      -0.02160000
C        0.66030000      -0.99710000       1.08300000
C       -1.18080000      -1.00010000      -0.01600000
O       -1.99630000      -0.93910000       1.12770000
C       -2.02200000      -1.00400000      -1.22130000
N       -2.72680000      -1.02850000      -2.13790000
H        0.97860000       1.90760000       0.10280000
H       -0.51760000       1.86420000      -0.84600000
H       -0.58920000       1.81470000       0.92490000
H        0.26780000      -0.93720000      -2.06440000
H        1.78930000      -0.92900000      -1.09360000
H        0.08020000      -3.01680000      -0.05150000
H        1.74970000      -0.97710000       1.15820000
H        0.18090000      -1.02470000       2.05970000
H       -2.64820000      -1.64720000       1.08420000
