23
Properties=species:S:1:pos:R:3 gdb_63845=T pbc="F F F"
C        0.09380000       1.50910000       0.05410000
C       -0.03470000      -0.01800000      -0.02340000
C       -1.51280000      -0.41860000       0.07210000
C        0.60330000      -0.56210000      -1.34820000
C        1.76380000      -1.52780000      -1.09310000
C        1.33960000      -2.55990000      -0.01060000
C        1.67690000      -1.43560000       1.00540000
C        2.71300000      -0.91330000      -0.02600000
O        0.60100000      -0.53660000       1.17440000
H        1.14230000       1.81550000       0.00030000
H       -0.44540000       1.98680000      -0.77110000
H       -0.31970000       1.87470000       0.99840000
H       -2.08750000       0.01680000      -0.75260000
H       -1.62580000      -1.50550000       0.03120000
H       -1.93820000      -0.06740000       1.01670000
H       -0.16710000      -1.06940000      -1.94000000
H        0.95880000       0.28040000      -1.95220000
H        2.19120000      -1.89300000      -2.03020000
H        0.31770000      -2.94740000      -0.02040000
H        2.04710000      -3.39020000       0.06230000
H        2.00500000      -1.69980000       2.01290000
H        3.65750000      -1.45940000       0.04420000
H        2.91060000       0.16140000      -0.04950000
