16
Properties=species:S:1:pos:R:3 gdb_32888=T pbc="F F F"
O       -0.12040000       1.40920000      -0.06440000
C        0.01520000      -0.00090000      -0.06400000
C       -1.38750000      -0.58320000       0.14200000
C       -1.39840000      -2.07050000       0.13880000
N       -1.61240000      -2.87810000       1.13740000
C       -1.48940000      -4.14090000       0.59480000
O       -1.65190000      -5.24700000       1.34340000
C       -1.19920000      -4.05030000      -0.72630000
O       -1.13940000      -2.70440000      -1.02370000
H        0.75090000       1.79640000      -0.18910000
H        0.42910000      -0.37030000      -1.01410000
H        0.67700000      -0.34600000       0.74530000
H       -1.78650000      -0.24130000       1.09910000
H       -2.03790000      -0.20060000      -0.65230000
H       -1.85680000      -4.94650000       2.23710000
H       -1.02490000      -4.74500000      -1.52610000
