12
Properties=species:S:1:pos:R:3 gdb_133321=T pbc="F F F"
N       -0.01790000       1.41780000       0.15820000
C       -0.02350000       0.05290000       0.05580000
C       -1.16840000      -0.72750000       0.03260000
F       -2.36050000      -0.12400000       0.05390000
C       -1.05950000      -2.11120000      -0.01790000
N        0.10830000      -2.74720000      -0.05000000
N        1.23090000      -2.01900000      -0.03820000
C        1.15380000      -0.71870000       0.01100000
F        2.30350000      -0.03900000       0.01210000
H        0.83600000       1.88180000      -0.10700000
H       -0.86870000       1.89440000      -0.09450000
H       -1.95260000      -2.72760000      -0.03360000
