20
Properties=species:S:1:pos:R:3 gdb_84950=T pbc="F F F"
C       -0.64900000       1.40220000       0.06260000
C        0.17980000       0.11040000       0.01610000
C        0.96760000       0.04130000      -1.27960000
C        2.17350000      -0.44310000      -1.58930000
C        3.21180000      -1.10460000      -0.71050000
C        2.73450000      -2.37490000       0.00950000
O        1.52410000      -2.15310000       0.74060000
C        1.56260000      -1.03340000       1.52540000
N        0.96760000       0.04090000       1.25820000
H        0.00710000       2.27780000       0.06690000
H       -1.31810000       1.47090000      -0.80090000
H       -1.25300000       1.42710000       0.97300000
H       -0.51960000      -0.73970000       0.00070000
H        0.40500000       0.47050000      -2.10870000
H        2.46150000      -0.35230000      -2.63460000
H        4.07920000      -1.38290000      -1.31880000
H        3.58560000      -0.39560000       0.03740000
H        2.49330000      -3.16760000      -0.70260000
H        3.52460000      -2.74130000       0.68270000
H        2.15840000      -1.12730000       2.43810000
