15
Properties=species:S:1:pos:R:3 gdb_125980=T pbc="F F F"
C       -0.12710000       1.26250000       1.36740000
C        0.06080000      -0.11210000       0.77530000
C        0.12120000      -0.31760000      -0.70300000
N        1.32020000      -0.48900000       0.11100000
C        2.37330000       0.37910000       0.00070000
N        2.83670000       0.90320000      -1.10500000
O        3.94860000       1.58380000      -0.70240000
N        4.09350000       1.44630000       0.66640000
N        3.15800000       0.72470000       1.09440000
H        0.24360000       2.04460000       0.69860000
H       -1.19140000       1.44500000       1.54520000
H        0.39780000       1.35280000       2.32310000
H       -0.33550000      -0.92870000       1.37410000
H       -0.26120000      -1.22890000      -1.15180000
H        0.07600000       0.56520000      -1.33570000
