14
Properties=species:S:1:pos:R:3 gdb_29250=T pbc="F F F"
N        0.04150000       1.41740000       0.03380000
C       -0.02490000       0.02720000       0.01720000
C       -1.14460000      -0.71610000       0.08630000
N       -1.07470000      -2.10870000       0.12370000
C        0.08780000      -2.82560000       0.12270000
O        0.16580000      -4.02210000       0.17400000
O        1.22730000      -2.05610000       0.05190000
C        1.25800000      -0.67480000      -0.02950000
N        2.35540000      -0.05140000      -0.14320000
H        0.95230000       1.74090000      -0.26840000
H       -0.71570000       1.88990000      -0.43820000
H       -2.14100000      -0.29640000       0.12030000
H       -1.91510000      -2.66010000       0.17520000
H        3.14810000      -0.69170000      -0.16490000
