23
Properties=species:S:1:pos:R:3 gdb_63945=T pbc="F F F"
C       -0.18300000       1.58570000      -0.03080000
C       -0.00670000       0.06330000      -0.01720000
C       -1.38370000      -0.61270000       0.09080000
C        0.77920000      -0.48430000      -1.26050000
C        1.91630000      -1.28560000      -0.58870000
C        2.99080000      -0.31730000      -0.04350000
C        2.26340000       0.24720000       1.21380000
C        0.90610000      -0.48310000       1.12450000
O        1.29250000      -1.76860000       0.61270000
H        0.75420000       2.11420000      -0.22640000
H       -0.89150000       1.88050000      -0.81250000
H       -0.58200000       1.94870000       0.92370000
H       -1.99450000      -0.39670000      -0.79280000
H       -1.27270000      -1.69710000       0.17320000
H       -1.93250000      -0.25510000       0.97010000
H        0.14720000      -1.13610000      -1.86960000
H        1.15730000       0.31420000      -1.90550000
H        2.29840000      -2.12870000      -1.16500000
H        3.89920000      -0.85860000       0.23060000
H        3.26340000       0.45390000      -0.76870000
H        2.77740000      -0.04890000       2.13120000
H        2.17910000       1.33510000       1.21880000
H        0.39040000      -0.61150000       2.07790000
