20
Properties=species:S:1:pos:R:3 gdb_10064=T pbc="F F F"
C        0.81050000       1.09820000      -0.41080000
C        0.29780000      -0.30890000      -0.09880000
C       -1.22220000      -0.35420000       0.11730000
O       -1.83000000       0.07320000      -1.09530000
C       -3.21920000       0.29520000      -0.99450000
C       -1.67480000      -1.69180000       0.52390000
C       -2.03710000      -2.79340000       0.85010000
C       -2.47320000      -4.12500000       1.24570000
H        1.89110000       1.08920000      -0.58220000
H        0.32270000       1.49720000      -1.30290000
H        0.61090000       1.78580000       0.41910000
H        0.53900000      -0.99600000      -0.91710000
H        0.77810000      -0.70480000       0.80230000
H       -1.48540000       0.36050000       0.91870000
H       -3.76050000      -0.62180000      -0.72440000
H       -3.45220000       1.06980000      -0.24660000
H       -3.56000000       0.63710000      -1.97470000
H       -3.33910000      -4.08180000       1.91550000
H       -2.75690000      -4.72370000       0.37320000
H       -1.67510000      -4.66320000       1.76910000
