20
Properties=species:S:1:pos:R:3 gdb_40170=T pbc="F F F"
C       -0.06590000       1.50880000       0.00870000
N        1.24200000       0.82160000      -0.05170000
C       -0.00300000       0.03000000      -0.01390000
C       -0.28840000      -0.78440000       1.24960000
C       -0.26320000      -2.31650000       0.99260000
C       -0.59080000      -2.58990000      -0.48100000
C        0.48840000      -1.99870000      -1.40870000
C       -0.39000000      -0.73800000      -1.26530000
O       -1.53720000      -1.57850000      -0.95490000
H       -0.26210000       2.02690000       0.94400000
H       -0.42760000       2.02530000      -0.87740000
H        1.60280000       0.86000000      -1.00410000
H        0.41630000      -0.49680000       2.03370000
H       -1.29060000      -0.51580000       1.59540000
H        0.71650000      -2.74950000       1.22540000
H       -0.99100000      -2.80900000       1.64480000
H       -0.95040000      -3.60450000      -0.66900000
H        1.51890000      -1.95700000      -1.04900000
H        0.44670000      -2.41750000      -2.41550000
H       -0.55670000      -0.09610000      -2.13650000
