13
Properties=species:S:1:pos:R:3 gdb_133289=T pbc="F F F"
C       -0.02590000       1.42570000      -0.22400000
N       -0.01250000      -0.02810000      -0.21570000
C       -1.05340000      -0.64260000       0.16390000
O       -2.19660000       0.01450000       0.56750000
N       -3.33250000      -0.70050000       0.98560000
C       -3.20890000      -1.97350000       0.95440000
F       -4.25930000      -2.66140000       1.34130000
N       -2.14010000      -2.75930000       0.57630000
C       -1.10700000      -2.09700000       0.19720000
H        0.94470000       1.78960000      -0.56500000
H       -0.80630000       1.81620000      -0.89030000
H       -0.22860000       1.83270000       0.77530000
H       -0.21160000      -2.62540000      -0.12070000
