11
Properties=species:S:1:pos:R:3 gdb_130912=T pbc="F F F"
O       -0.06400000       0.02340000      -0.00090000
C       -0.00160000       1.22300000       0.00710000
C        1.27750000       1.99110000      -0.00050000
N        2.44630000       1.39300000      -0.01730000
O        3.38790000       2.40580000      -0.01950000
C        2.78020000       3.59220000      -0.00420000
C        1.42630000       3.42000000       0.00860000
C        0.41410000       4.40810000       0.02660000
N       -0.42620000       5.20390000       0.04130000
H       -0.90450000       1.86660000       0.02050000
H        3.41360000       4.46510000      -0.00420000
