15
Properties=species:S:1:pos:R:3 gdb_32369=T pbc="F F F"
O       -0.01040000       1.45380000       0.00690000
C        0.02700000       0.04100000       0.00190000
C       -1.38130000      -0.49060000       0.01250000
C       -2.45820000       0.32440000       0.02400000
O       -3.72510000      -0.12160000       0.03350000
C       -4.04910000      -1.49090000       0.03240000
O       -5.21270000      -1.78950000       0.04130000
C       -2.90320000      -2.37910000       0.02010000
C       -1.63680000      -1.90020000       0.01070000
H        0.89230000       1.78290000       0.00010000
H        0.55350000      -0.34370000      -0.88830000
H        0.56890000      -0.34950000       0.88030000
H       -2.39820000       1.40410000       0.02650000
H       -3.12730000      -3.43810000       0.01910000
H       -0.79680000      -2.59060000       0.00170000
