17
Properties=species:S:1:pos:R:3 gdb_98923=T pbc="F F F"
C        0.27630000       1.41330000       0.00520000
C       -0.07930000      -0.07090000       0.00370000
C       -1.59160000      -0.30460000       0.01620000
O       -2.40390000       0.58430000       0.02690000
N       -1.91390000      -1.66560000       0.01370000
C       -3.17310000      -2.27510000       0.02230000
N       -4.26800000      -1.62220000       0.03880000
C       -3.08050000      -3.71570000       0.01080000
C       -3.02660000      -4.91760000       0.00170000
H        1.36140000       1.54730000      -0.00390000
H       -0.14510000       1.91430000      -0.86940000
H       -0.12960000       1.90870000       0.89030000
H        0.34170000      -0.57280000      -0.87790000
H        0.35680000      -0.57830000       0.87470000
H       -1.13740000      -2.30800000       0.00290000
H       -5.05030000      -2.27520000       0.04190000
H       -2.99440000      -5.97990000      -0.00620000
