18
Properties=species:S:1:pos:R:3 gdb_29878=T pbc="F F F"
C       -0.30720000       1.44980000      -0.00720000
N        0.00670000       0.02970000       0.02080000
C        0.22320000      -0.65300000      -1.15260000
N        0.50580000      -1.89570000      -1.27760000
C        0.61740000      -2.69040000      -0.11210000
N        0.89690000      -3.94150000      -0.14880000
C        0.39520000      -2.00600000       1.15450000
C        0.10040000      -0.69240000       1.21700000
C       -0.13430000       0.04380000       2.50280000
H        0.44350000       2.03960000       0.52830000
H       -0.32240000       1.78170000      -1.04660000
H       -1.28930000       1.65480000       0.43070000
H        0.13580000      -0.03500000      -2.04600000
H        1.01230000      -4.21700000      -1.12660000
H        0.47390000      -2.58850000       2.06380000
H       -0.02800000      -0.64610000       3.34070000
H        0.58180000       0.86150000       2.64330000
H       -1.13860000       0.48030000       2.54760000
