16
Properties=species:S:1:pos:R:3 gdb_131788=T pbc="F F F"
O        0.06930000       1.43190000       0.18990000
C        0.06790000       0.01770000       0.17970000
C       -1.33550000      -0.55760000      -0.09580000
C       -1.34330000      -2.04880000      -0.09500000
N       -0.69860000      -2.83960000      -0.94510000
C       -1.00860000      -4.08400000      -0.49180000
O       -0.55280000      -5.19730000      -1.08040000
N       -1.79200000      -4.13970000       0.56910000
N       -1.99020000      -2.80910000       0.80690000
H       -0.05440000       1.73770000      -0.71430000
H        0.77710000      -0.39490000      -0.55020000
H        0.40340000      -0.29350000       1.17430000
H       -2.03440000      -0.17160000       0.65320000
H       -1.67900000      -0.20180000      -1.07490000
H       -0.01170000      -4.91130000      -1.82590000
H       -2.57310000      -2.52450000       1.57640000
