21
Properties=species:S:1:pos:R:3 gdb_84239=T pbc="F F F"
C        0.00450000       1.52980000      -0.09540000
C       -0.02290000      -0.00110000      -0.01690000
C        0.83360000      -0.61530000      -1.12390000
C        1.58110000      -1.61780000      -0.62320000
C        2.99180000      -1.24140000      -0.15110000
C        2.22870000      -1.02870000       1.21030000
C        1.13610000      -1.98070000       0.80410000
C        0.68380000      -0.62600000       1.21580000
C        0.10590000      -0.36760000       2.59020000
H        1.03350000       1.90370000      -0.12650000
H       -0.51510000       1.88960000      -0.98930000
H       -0.48790000       1.97120000       0.77710000
H       -1.07610000      -0.32410000       0.00550000
H        1.19050000       0.01970000      -1.93200000
H        3.70900000      -2.06160000      -0.02460000
H        3.47190000      -0.39420000      -0.64960000
H        2.73930000      -1.01770000       2.17070000
H        0.86920000      -2.95180000       1.20220000
H        0.58430000      -0.98680000       3.35490000
H        0.22480000       0.67980000       2.88900000
H       -0.96680000      -0.59530000       2.60350000
