18
Properties=species:S:1:pos:R:3 gdb_56288=T pbc="F F F"
C        0.00110000       1.48950000      -0.11510000
C       -0.00880000      -0.01910000       0.03870000
O       -0.04340000      -0.55680000       1.12290000
C        0.02710000      -0.83040000      -1.24860000
C        0.01540000      -2.32850000      -0.99470000
O        0.05090000      -2.97740000      -2.25740000
C        0.04320000      -4.37650000      -2.13600000
C        0.07910000      -4.97730000      -3.47300000
N        0.10690000      -5.47820000      -4.51260000
H        0.89830000       1.81210000      -0.65510000
H       -0.85990000       1.81820000      -0.70790000
H       -0.02680000       1.96160000       0.86740000
H       -0.82700000      -0.54720000      -1.87690000
H        0.91830000      -0.55200000      -1.82530000
H        0.88090000      -2.62240000      -0.38300000
H       -0.88640000      -2.61750000      -0.43530000
H        0.91260000      -4.74050000      -1.56380000
H       -0.85930000      -4.73500000      -1.61390000
