22
Properties=species:S:1:pos:R:3 gdb_122429=T pbc="F F F"
C        0.09430000       1.49810000       0.08630000
O       -0.02440000       0.09670000       0.05230000
C        0.69620000      -0.54380000       1.08440000
C        0.54920000      -2.04970000       0.92800000
N        1.23440000      -2.55860000      -0.24090000
C        0.66600000      -2.33100000      -1.59170000
C        1.19410000      -3.73000000      -1.99680000
O        2.44840000      -3.73480000      -2.63830000
C        1.23460000      -4.01820000      -0.47300000
H        1.13990000       1.82380000      -0.03220000
H       -0.49650000       1.89820000      -0.74130000
H       -0.28860000       1.91690000       1.03090000
H        1.76290000      -0.26980000       1.03880000
H        0.31000000      -0.23230000       2.07020000
H        0.98720000      -2.52800000       1.81300000
H       -0.52990000      -2.30030000       0.91990000
H       -0.43360000      -2.27610000      -1.59530000
H        1.06620000      -1.46840000      -2.13170000
H        0.53710000      -4.35570000      -2.60150000
H        3.03170000      -3.16550000      -2.12320000
H        2.10820000      -4.55670000      -0.08830000
H        0.31610000      -4.51800000      -0.12110000
