17
Properties=species:S:1:pos:R:3 gdb_84141=T pbc="F F F"
C       -0.22980000       1.55880000      -0.06070000
C        0.07050000       0.06450000      -0.06980000
N        0.95800000      -0.32610000      -1.16510000
C        1.81750000      -1.14170000      -0.68810000
N        2.86150000      -1.70260000      -1.38750000
N        1.69190000      -1.48920000       0.66940000
C        0.76600000      -0.49840000       1.23850000
C        1.48140000       0.51700000       2.02600000
N        2.06230000       1.29020000       2.65970000
H        0.68730000       2.14370000       0.04770000
H       -0.70230000       1.83460000      -1.00660000
H       -0.90920000       1.82350000       0.75600000
H       -0.87820000      -0.48030000      -0.17780000
H        2.76840000      -1.58300000      -2.38610000
H        3.09620000      -2.64910000      -1.12440000
H        2.56300000      -1.61050000       1.17130000
H        0.03520000      -0.97520000       1.89770000
