18
Properties=species:S:1:pos:R:3 gdb_85406=T pbc="F F F"
C       -0.00410000       1.60680000      -0.08100000
C        0.08190000       0.08670000       0.04430000
C        0.68320000      -0.56550000      -1.20950000
C        0.91130000      -2.04070000      -0.99440000
O        0.76530000      -2.91270000      -1.79730000
O        1.36660000      -2.36570000       0.26710000
C        1.42240000      -1.39360000       1.26400000
C        2.22580000      -1.89210000       2.42200000
N        0.85350000      -0.26840000       1.23420000
H        0.99340000       2.03680000      -0.21800000
H       -0.62670000       1.89450000      -0.93390000
H       -0.43370000       2.03420000       0.82820000
H       -0.93700000      -0.30450000       0.18970000
H        0.05980000      -0.43990000      -2.09640000
H        1.65930000      -0.10560000      -1.41750000
H        3.24810000      -2.12040000       2.10400000
H        2.24050000      -1.13810000       3.20770000
H        1.79360000      -2.82140000       2.80660000
