19
Properties=species:S:1:pos:R:3 gdb_74683=T pbc="F F F"
C        0.17180000       1.44410000       0.24740000
C       -0.01350000      -0.03270000       0.09390000
C        0.19120000      -0.76020000      -1.00950000
C       -0.08140000      -2.22810000      -0.82690000
C        1.18880000      -3.12750000      -0.65550000
C        1.00720000      -2.98090000       0.86500000
O        1.70020000      -3.21530000       1.81210000
C       -0.37820000      -2.31870000       0.71190000
C       -0.50110000      -0.88390000       1.25400000
H        0.91380000       1.67060000       1.02340000
H        0.50080000       1.91040000      -0.68500000
H       -0.76180000       1.92850000       0.56110000
H        0.53290000      -0.34960000      -1.95470000
H       -0.83000000      -2.62440000      -1.51770000
H        1.04060000      -4.16440000      -0.97800000
H        2.13420000      -2.76400000      -1.06660000
H       -1.18770000      -2.98700000       1.01600000
H        0.10270000      -0.74140000       2.15890000
H       -1.53330000      -0.62610000       1.52670000
