8
Properties=species:S:1:pos:R:3 gdb_334=T pbc="F F F"
O       -0.04620000       1.43960000       0.01030000
C        0.03760000       0.03760000       0.00190000
C        0.69190000      -0.48420000      -1.21910000
N        1.19960000      -0.85570000      -2.18690000
C        0.71500000      -0.49730000       1.20450000
N        1.24100000      -0.87910000       2.15840000
H        0.84660000       1.80730000       0.00370000
H       -0.99740000      -0.32420000       0.00980000
