18
Properties=species:S:1:pos:R:3 gdb_18596=T pbc="F F F"
C        0.29300000       1.58540000       0.10930000
C        0.11010000       0.07810000       0.02160000
C        1.05610000      -0.73960000      -0.91430000
C        1.36280000      -1.71870000       0.25800000
O        2.68850000      -1.74720000       0.74960000
C        2.85130000      -0.55680000       1.48360000
O        1.59810000      -0.23030000       2.05450000
C        0.58500000      -0.78940000       1.23130000
H        1.32010000       1.84460000       0.38200000
H        0.06470000       2.06160000      -0.85020000
H       -0.36590000       2.02150000       0.86740000
H       -0.93770000      -0.15670000      -0.19510000
H        0.59220000      -1.19050000      -1.79430000
H        1.94420000      -0.18930000      -1.23820000
H        1.02480000      -2.74720000       0.12880000
H        3.57810000      -0.72770000       2.28340000
H        3.19980000       0.26180000       0.82980000
H       -0.18990000      -1.19880000       1.88320000
