16
Properties=species:S:1:pos:R:3 gdb_125692=T pbc="F F F"
C        0.08210000       1.51420000       0.08080000
C        0.06000000       0.02360000       0.00820000
N        0.02070000      -0.64430000      -1.14450000
N        0.01320000      -1.91370000      -0.76960000
N        0.04420000      -2.15820000       0.54110000
C        0.07440000      -0.93180000       1.05710000
N        0.11400000      -0.62450000       2.41010000
C        0.13070000      -1.46500000       3.50440000
N        0.11120000      -2.73310000       3.43560000
H        0.98540000       1.88490000       0.58100000
H        0.06100000       1.93310000      -0.92710000
H       -0.78290000       1.90880000       0.62800000
H       -0.01420000      -2.66580000      -1.43710000
H        0.13300000       0.35950000       2.61670000
H        0.16310000      -0.87580000       4.43020000
H        0.13010000      -3.12740000       4.37390000
