19
Properties=species:S:1:pos:R:3 gdb_110497=T pbc="F F F"
O        0.25170000       0.59060000       1.05860000
C       -0.05960000       0.35970000      -0.31130000
C       -1.42590000      -0.29300000      -0.35890000
C       -1.92710000      -0.99390000      -1.64730000
C       -1.02190000      -2.25320000      -1.35500000
C       -1.81730000      -3.47850000      -1.77820000
C       -3.06690000      -3.19510000      -1.40600000
C       -2.95390000      -1.81580000      -0.77960000
C       -1.60490000      -1.78230000       0.03350000
H        1.09960000       1.04230000       1.10140000
H       -0.09000000       1.30740000      -0.87430000
H        0.70290000      -0.27480000      -0.78670000
H       -2.15790000       0.37800000       0.10560000
H       -2.12150000      -0.54780000      -2.62750000
H        0.04980000      -2.22100000      -1.54520000
H       -1.42360000      -4.35850000      -2.26720000
H       -3.97020000      -3.77990000      -1.50780000
H       -3.83500000      -1.31470000      -0.37660000
H       -1.42200000      -2.24620000       1.00580000
