13
Properties=species:S:1:pos:R:3 gdb_132281=T pbc="F F F"
C        0.00600000       1.47990000      -0.03340000
C       -0.03390000      -0.01280000      -0.00370000
N       -1.16070000      -0.62840000      -0.15940000
C       -1.19500000      -1.99470000      -0.13190000
N       -2.21620000      -2.71140000      -0.26880000
O        0.09230000      -2.66400000       0.07820000
C        1.14470000      -1.89500000       0.21930000
F        2.22200000      -2.60760000       0.39930000
N        1.20560000      -0.62300000       0.19840000
H        0.68380000       1.81210000      -0.82690000
H       -0.99100000       1.88740000      -0.19360000
H        0.42200000       1.85370000       0.90820000
H       -1.98920000      -3.70220000      -0.21090000
