19
Properties=species:S:1:pos:R:3 gdb_68997=T pbc="F F F"
C        0.22430000       1.55260000       0.04500000
C        0.10780000       0.05730000       0.03840000
C       -0.92650000      -0.72770000       0.82480000
C        0.53390000      -1.01170000       1.03520000
O        1.00820000      -1.88710000       0.00760000
C        0.72130000      -0.87850000      -0.99980000
C        1.26030000      -0.98380000       2.32120000
C        2.22240000      -2.03920000       2.67090000
O        2.67200000      -0.74650000       2.26520000
H        1.24670000       1.87300000      -0.18230000
H       -0.44410000       2.00610000      -0.69690000
H       -0.04510000       1.96570000       1.02210000
H       -1.41680000      -0.15830000       1.60960000
H       -1.54470000      -1.48530000       0.34970000
H        0.07140000      -1.26220000      -1.79530000
H        1.65270000      -0.49350000      -1.43090000
H        0.74720000      -0.45680000       3.12580000
H        2.38600000      -2.28980000       3.71820000
H        2.40330000      -2.83650000       1.95410000
