18
Properties=species:S:1:pos:R:3 gdb_85969=T pbc="F F F"
N        0.01600000       0.16100000       0.39830000
H       -0.68370000      -0.67170000       2.19090000
H        1.01870000       0.18470000       0.23300000
H       -0.41830000      -0.12400000      -0.47530000
C       -0.46610000       1.49350000       0.79610000
C       -1.91900000       1.37080000       1.32590000
C       -1.32300000       1.06000000       2.73360000
O       -1.14360000      -0.32230000       2.97510000
C       -0.02390000       1.77900000       2.25530000
C       -2.04180000       1.67140000       3.93080000
O       -2.33730000       0.80690000       4.91190000
O       -2.32090000       2.84030000       3.98740000
H       -0.27030000       2.27630000       0.05320000
H       -2.43260000       2.33360000       1.33320000
H       -2.55820000       0.59850000       0.89050000
H       -2.00970000      -0.06380000       4.62530000
H        0.92070000       1.34790000       2.59670000
H       -0.06730000       2.84310000       2.49310000
