17
Properties=species:S:1:pos:R:3 gdb_114459=T pbc="F F F"
O        0.01250000       1.42280000      -0.15550000
C        0.07380000       0.03620000       0.10230000
C       -1.32030000      -0.57800000       0.12270000
O       -1.96680000      -0.28230000      -1.15250000
C       -2.28200000      -1.55710000      -1.64830000
C       -2.75880000      -2.50210000      -0.50580000
O       -2.15700000      -3.65560000      -1.17680000
C       -1.16190000      -2.59240000      -1.33120000
C       -1.39370000      -2.09650000       0.13390000
H       -0.52160000       1.52060000      -0.95320000
H        0.69250000      -0.48870000      -0.64440000
H        0.55290000      -0.08870000       1.07960000
H       -1.91360000      -0.11310000       0.91970000
H       -2.77870000      -1.52390000      -2.61510000
H       -3.73680000      -2.62240000      -0.04130000
H       -0.23570000      -2.82600000      -1.85460000
H       -0.99610000      -2.66590000       0.97160000
