17
Properties=species:S:1:pos:R:3 gdb_82261=T pbc="F F F"
C       -0.23630000       1.56450000       0.06820000
C        0.02340000       0.06080000      -0.00330000
N        0.67190000      -0.36660000      -1.26730000
C        2.03170000       0.12780000      -1.49100000
C        1.81790000      -1.23190000      -0.90550000
C        1.88820000      -1.27580000       0.57530000
C        0.91950000      -0.51180000       1.10170000
C        0.70600000      -0.24690000       2.47790000
N        0.48590000      -0.00460000       3.59000000
H        0.69330000       2.13960000       0.04000000
H       -0.86130000       1.87320000      -0.77370000
H       -0.75860000       1.81270000       0.99640000
H       -0.94770000      -0.45040000       0.04000000
H        2.29840000       0.22710000      -2.53930000
H        2.44700000       0.88600000      -0.83250000
H        1.99400000      -2.12960000      -1.49060000
H        2.63050000      -1.83190000       1.13330000
