18
Properties=species:S:1:pos:R:3 gdb_54154=T pbc="F F F"
C       -0.04720000       1.54230000       0.11150000
C        0.01120000       0.03840000       0.02090000
O       -1.16530000      -0.47480000      -0.49830000
C        1.31680000      -0.64880000      -0.26920000
C        0.74030000      -0.73720000       1.14020000
O        1.34480000      -0.00140000       2.17420000
C        0.11990000      -2.03710000       1.54930000
N        0.22370000      -2.32940000       2.86840000
O       -0.44620000      -2.76980000       0.73960000
H        0.84330000       1.94690000       0.59340000
H       -0.13670000       1.96550000      -0.89360000
H       -0.92610000       1.84540000       0.68750000
H       -1.14660000      -1.43920000      -0.35460000
H        1.29150000      -1.56130000      -0.85500000
H        2.20780000      -0.03770000      -0.37900000
H        2.28260000      -0.22540000       2.18840000
H        0.55250000      -1.61620000       3.49780000
H       -0.29790000      -3.11420000       3.22250000
