14
Properties=species:S:1:pos:R:3 gdb_13656=T pbc="F F F"
C       -0.10740000       1.51140000      -0.10880000
C       -0.02110000       0.01880000       0.05520000
O        1.25020000      -0.59320000      -0.12390000
C        0.67310000      -0.64200000       1.19180000
C        1.31650000       0.10990000       2.22920000
C        1.83730000       0.71310000       3.13830000
C        2.48740000       1.45270000       4.18910000
O        2.22470000       1.34390000       5.36480000
H        0.72090000       2.01060000       0.39790000
H       -0.07560000       1.77230000      -1.17140000
H       -1.05070000       1.88480000       0.30270000
H       -0.84630000      -0.55120000      -0.37630000
H        0.32680000      -1.63090000       1.49030000
H        3.27040000       2.15100000       3.83030000
