15
Properties=species:S:1:pos:R:3 gdb_75877=T pbc="F F F"
O        0.49610000       0.32690000       0.86930000
C       -0.16570000      -0.06960000      -0.24220000
C       -1.48960000      -0.38510000      -0.21890000
N       -2.32830000      -0.27160000       0.89940000
H       -1.80890000       0.11490000       1.67900000
H       -2.72930000      -1.16010000       1.18480000
N       -2.08800000      -0.79590000      -1.39140000
C       -1.39390000      -0.89910000      -2.56050000
C       -0.06920000      -0.59940000      -2.62740000
C        0.63740000      -0.14400000      -1.45270000
O        1.84010000       0.15740000      -1.37390000
H        1.40360000       0.47170000       0.52310000
H       -3.09020000      -0.89770000      -1.38820000
H       -1.97020000      -1.23280000      -3.41420000
H        0.46920000      -0.69720000      -3.56120000
