14
Properties=species:S:1:pos:R:3 gdb_319=T pbc="F F F"
O       -0.07250000       1.34930000       0.00930000
C        0.02140000      -0.02950000       0.00170000
C        0.66050000      -0.97000000       1.07450000
C        0.03140000      -1.89250000      -0.00750000
C       -1.21440000      -0.95780000       0.00630000
C        0.64450000      -0.95930000      -1.08960000
H        0.81860000       1.71510000       0.00440000
H        1.75260000      -0.97190000       1.14360000
H        0.19000000      -0.97590000       2.06110000
H        0.03180000      -2.97950000      -0.01290000
H       -1.81980000      -0.95930000       0.91640000
H       -1.83320000      -0.95040000      -0.89470000
H        0.15940000      -0.95550000      -2.06910000
H        1.73540000      -0.96050000      -1.17490000
