17
Properties=species:S:1:pos:R:3 gdb_93648=T pbc="F F F"
O       -0.56740000       1.29140000       0.87880000
C       -0.13580000       0.12740000       0.18220000
C        0.79200000      -0.80150000       1.00560000
N        0.04460000      -2.04460000       1.31070000
C       -1.36860000      -1.76450000       1.04600000
C       -1.98740000      -1.12990000       2.22440000
N       -2.42670000      -0.56960000       3.13560000
C       -1.35710000      -0.76620000      -0.16100000
O       -2.53020000      -0.04910000      -0.38120000
H       -0.79980000       1.05180000       1.78580000
H        0.34660000       0.50400000      -0.72200000
H        1.71580000      -1.04180000       0.47420000
H        1.07840000      -0.29160000       1.93340000
H        0.34620000      -2.79850000       0.70610000
H       -1.91540000      -2.68260000       0.81960000
H       -1.13950000      -1.36750000      -1.05250000
H       -2.40620000       0.80170000       0.06780000
