12
Properties=species:S:1:pos:R:3 gdb_130540=T pbc="F F F"
O        0.01650000      -0.06010000       0.00410000
C       -0.03170000       1.15470000       0.00780000
C        1.15370000       1.98490000       0.00160000
C        2.15150000       2.65660000      -0.00380000
C       -1.33260000       1.85420000       0.01900000
C       -2.60560000       1.36260000       0.02680000
C       -3.40330000       2.53100000       0.03590000
N       -2.67470000       3.62580000       0.03340000
O       -1.36120000       3.20150000       0.02290000
H        3.03450000       3.24920000      -0.00830000
H       -2.90440000       0.32870000       0.02600000
H       -4.48020000       2.61960000       0.04390000
