21
Properties=species:S:1:pos:R:3 gdb_96450=T pbc="F F F"
C        0.45690000       1.63090000      -0.00260000
C       -0.06050000       0.18200000      -0.04230000
C        0.44250000      -0.50460000      -1.31990000
O       -0.14400000      -1.76290000      -1.58260000
C        0.46220000      -2.85810000      -0.92580000
C       -0.02210000      -3.06420000       0.50960000
C        0.33230000      -1.97580000       1.49880000
O        1.55470000      -1.24480000       1.31780000
C        0.31100000      -0.52720000       1.24920000
H        1.55090000       1.65370000       0.05270000
H        0.15190000       2.18430000      -0.89620000
H        0.06870000       2.16500000       0.86990000
H       -1.15830000       0.20490000      -0.09170000
H        0.18200000       0.13040000      -2.17370000
H        1.53840000      -0.58910000      -1.28410000
H        0.20130000      -3.74520000      -1.51270000
H        1.55640000      -2.75470000      -0.93800000
H       -1.11240000      -3.19080000       0.51040000
H        0.40090000      -4.01090000       0.87220000
H        0.16440000      -2.27290000       2.53710000
H        0.13490000       0.09410000       2.13190000
