17
Properties=species:S:1:pos:R:3 gdb_128500=T pbc="F F F"
C        0.85860000       1.49050000       0.13080000
O        0.33520000       0.16500000       0.19620000
C        0.28360000      -0.49470000      -0.97440000
C       -0.15340000      -1.79380000      -1.15060000
C       -0.68810000      -2.84920000      -0.24110000
N       -0.34360000      -4.17830000      -0.76930000
H        0.64610000      -4.35860000      -0.62520000
H       -0.84560000      -4.89410000      -0.25390000
H       -0.19210000      -2.81410000      -3.00160000
N       -0.01080000      -1.96420000      -2.48960000
N        0.47990000      -0.88150000      -3.09840000
N        0.65600000       0.02870000      -2.16660000
H        1.88520000       1.49090000      -0.24950000
H        0.24720000       2.12340000      -0.52010000
H        0.83590000       1.86930000       1.15370000
H       -0.32750000      -2.64520000       0.77840000
H       -1.78410000      -2.79160000      -0.19690000
