15
Properties=species:S:1:pos:R:3 gdb_12946=T pbc="F F F"
C        0.01980000       1.55950000       0.01540000
C        0.08850000       0.05010000       0.06690000
C        1.32320000      -0.74760000      -0.14650000
O        2.47200000      -0.02550000       0.37690000
C        1.96860000      -0.13260000       1.67300000
O        2.51880000       0.15130000       2.68680000
C        0.67210000      -0.78200000       1.23030000
N       -0.10080000      -1.77100000       1.88000000
H        0.96820000       2.01230000       0.31160000
H       -0.20610000       1.89120000      -1.00330000
H       -0.76740000       1.93900000       0.67410000
H       -0.79610000      -0.46600000      -0.30450000
H        1.51930000      -1.53350000      -0.86170000
H        0.48160000      -2.40950000       2.41200000
H       -0.77030000      -1.35760000       2.52070000
