19
Properties=species:S:1:pos:R:3 gdb_59696=T pbc="F F F"
C        0.00910000       1.41390000      -0.13440000
N        0.03160000      -0.02810000       0.07680000
C        0.70560000      -0.37190000       1.32360000
C       -1.28900000      -0.59580000       0.00670000
C       -2.04180000      -0.49400000      -1.33530000
O       -2.32580000      -1.91440000      -1.32190000
C       -1.42480000      -2.13500000      -0.22350000
C       -0.20560000      -2.84230000      -0.63510000
N        0.73980000      -3.43100000      -0.94340000
H        1.03490000       1.79270000      -0.14690000
H       -0.44720000       1.65000000      -1.10010000
H       -0.54680000       1.95840000       0.65210000
H        0.19160000       0.03660000       2.21430000
H        0.77320000      -1.45770000       1.42900000
H        1.72460000       0.02390000       1.30600000
H       -1.93350000      -0.29630000       0.85350000
H       -2.95860000       0.10130000      -1.35490000
H       -1.39490000      -0.22340000      -2.17770000
H       -1.90350000      -2.70040000       0.58330000
