20
Properties=species:S:1:pos:R:3 gdb_81535=T pbc="F F F"
C        0.29120000       1.48680000       0.06020000
N        0.21780000       0.02600000       0.02610000
C       -0.94870000      -0.78570000       0.54510000
C        0.02110000      -1.99320000       0.45810000
C        0.78000000      -0.82160000       1.14810000
C       -0.48970000      -0.59000000       2.04910000
C       -0.81640000       0.72350000       2.78010000
C       -0.82070000      -1.69060000       3.03880000
O       -0.02490000      -2.43900000       3.54820000
H        0.56910000       1.93140000       1.02250000
H        1.04420000       1.80140000      -0.67170000
H       -0.66530000       1.91810000      -0.25510000
H       -1.95420000      -0.68060000       0.13100000
H       -0.19730000      -2.87820000       1.05120000
H        0.36730000      -2.21820000      -0.54870000
H        1.82990000      -0.77680000       1.44020000
H       -1.14320000       1.51920000       2.11430000
H       -1.63440000       0.55660000       3.49210000
H        0.04150000       1.07970000       3.35910000
H       -1.90220000      -1.73210000       3.31770000
