16
Properties=species:S:1:pos:R:3 gdb_127537=T pbc="F F F"
C       -0.01320000       1.37780000       0.06400000
N       -0.02970000      -0.06580000       0.01790000
N       -0.02430000      -0.74050000      -1.14000000
C        0.07420000      -2.00210000      -0.74070000
C        0.08680000      -3.40360000      -1.26020000
C        0.34190000      -4.17410000       0.08880000
O        0.20210000      -3.24340000       1.21180000
C        0.12990000      -2.02450000       0.64610000
N        0.07310000      -0.80650000       1.14960000
H        0.99100000       1.75400000       0.28660000
H       -0.33150000       1.74190000      -0.91230000
H       -0.70170000       1.72240000       0.83800000
H       -0.86550000      -3.69450000      -1.71650000
H        0.87760000      -3.61080000      -1.98640000
H       -0.36820000      -4.98610000       0.25480000
H        1.35790000      -4.57770000       0.12710000
