21
Properties=species:S:1:pos:R:3 gdb_110063=T pbc="F F F"
C        0.30000000       1.67460000      -0.30410000
O       -0.09440000       0.31340000      -0.26570000
C        0.64930000      -0.52790000      -1.12470000
C        1.95530000      -1.04840000      -0.47200000
O        1.77610000      -1.22970000       0.92190000
C        2.14850000      -2.39900000      -1.17320000
O        0.92700000      -2.72590000      -1.84690000
C       -0.11040000      -1.82780000      -1.46220000
C       -0.97020000      -2.38440000      -0.32750000
H        1.33850000       1.81420000       0.02690000
H        0.19690000       2.08830000      -1.31700000
H       -0.36310000       2.21840000       0.37230000
H        0.88930000      -0.00040000      -2.05820000
H        2.80650000      -0.37800000      -0.65460000
H        1.06790000      -0.62320000       1.17970000
H        2.94640000      -2.36290000      -1.92400000
H        2.40220000      -3.16220000      -0.42800000
H       -0.73680000      -1.68160000      -2.34950000
H       -0.37030000      -2.56250000       0.56760000
H       -1.77200000      -1.68410000      -0.07700000
H       -1.41660000      -3.33060000      -0.64550000
