21
Properties=species:S:1:pos:R:3 gdb_85660=T pbc="F F F"
C       -0.12900000       1.56400000      -0.04150000
C        0.01270000       0.03890000       0.01680000
C        0.80260000      -0.55890000      -1.17380000
C        1.57010000      -1.78190000      -0.59300000
C        2.85820000      -2.02750000      -1.23280000
C        3.92220000      -2.21990000      -1.75950000
C        1.64790000      -1.45220000       0.90190000
C        2.53630000      -2.22170000       1.82460000
C        0.79100000      -0.47730000       1.20540000
H        0.85480000       2.04590000      -0.05080000
H       -0.66670000       1.87530000      -0.94350000
H       -0.68220000       1.94450000       0.82380000
H       -1.00160000      -0.39070000       0.04040000
H        0.17180000      -0.82830000      -2.02450000
H        1.53510000       0.17500000      -1.52510000
H        0.96160000      -2.69310000      -0.71080000
H        4.85920000      -2.39220000      -2.22820000
H        3.58230000      -2.15920000       1.50390000
H        2.46190000      -1.85270000       2.85090000
H        2.27620000      -3.28850000       1.82590000
H        0.62330000      -0.10410000       2.21160000
