13
Properties=species:S:1:pos:R:3 gdb_132307=T pbc="F F F"
N       -0.02660000       1.34790000      -0.06160000
C       -0.00180000      -0.00520000      -0.02510000
N       -1.14860000      -0.63410000      -0.01040000
C       -1.19880000      -1.98500000      -0.00610000
N       -2.23920000      -2.69670000      -0.00130000
O        0.09180000      -2.70860000      -0.00110000
C        1.20170000      -2.01620000      -0.01280000
F        2.26070000      -2.79130000      -0.01020000
C        1.27720000      -0.67390000      -0.02650000
H        0.80710000       1.88580000       0.09130000
H       -0.92090000       1.79880000       0.04150000
H       -2.00690000      -3.68690000       0.00470000
H        2.22650000      -0.16130000      -0.04360000
