16
Properties=species:S:1:pos:R:3 gdb_37317=T pbc="F F F"
C       -0.06500000       1.50990000      -0.02000000
O        1.22460000       2.11900000       0.20050000
C        2.05540000       1.52110000       1.08230000
N        2.07390000       0.32210000       1.49230000
C        1.12040000      -0.57890000       0.90980000
C        0.02380000      -1.18420000       1.80270000
O       -0.89000000      -0.14700000       2.16900000
C       -1.02670000      -0.73200000       0.87190000
C       -0.00650000      -0.01510000      -0.03760000
H       -0.71890000       1.84250000       0.79110000
H       -0.41780000       1.93080000      -0.96340000
H        2.80650000       2.23160000       1.42440000
H        1.66020000      -1.39050000       0.40910000
H        0.08170000      -2.04460000       2.45890000
H       -1.98390000      -1.17120000       0.61720000
H        0.05630000      -0.42360000      -1.04730000
