18
Properties=species:S:1:pos:R:3 gdb_66980=T pbc="F F F"
C       -0.00180000       1.48950000       0.09950000
C       -0.04450000      -0.00430000      -0.02380000
C       -1.00920000      -0.89950000       0.78950000
C       -1.06260000      -2.23880000       0.07630000
N        0.41780000      -2.08380000      -0.25050000
C        0.47890000      -1.05940000       0.90760000
C        0.43010000      -0.89510000      -1.18150000
C       -0.30240000      -0.91870000      -2.49890000
O       -0.94970000      -1.82900000      -2.95020000
H        0.97390000       1.88470000      -0.20480000
H       -0.76760000       1.96930000      -0.52010000
H       -0.17570000       1.80050000       1.13500000
H       -1.69510000      -0.45870000       1.50290000
H       -1.16890000      -3.07220000       0.77560000
H       -1.71020000      -2.38790000      -0.78750000
H        1.19550000      -1.06490000       1.71690000
H        1.47780000      -0.65300000      -1.41440000
H       -0.18050000       0.03400000      -3.06970000
