21
Properties=species:S:1:pos:R:3 gdb_78863=T pbc="F F F"
C        0.03380000       1.60620000       0.08480000
C        0.11390000       0.08540000       0.05960000
C        1.14770000      -0.64140000      -0.80600000
C        1.27320000      -1.76250000       0.19130000
C        2.43440000      -0.80730000       0.02830000
C        2.16890000      -0.20980000       1.39080000
C        3.04280000      -0.41020000       2.58930000
C        2.72900000       0.99090000       2.08900000
C        0.72600000      -0.71920000       1.25530000
H        1.01380000       2.06080000       0.24680000
H       -0.35880000       1.98480000      -0.86590000
H       -0.63780000       1.95400000       0.87850000
H       -0.87410000      -0.33650000      -0.16060000
H        1.17950000      -0.71200000      -1.88690000
H        1.20320000      -2.83630000       0.09930000
H        3.39030000      -0.99910000      -0.44340000
H        2.58370000      -0.73170000       3.51930000
H        4.04860000      -0.79020000       2.43830000
H        3.52550000       1.54750000       1.60440000
H        2.06320000       1.60420000       2.68810000
H        0.13080000      -0.94300000       2.13980000
