19
Properties=species:S:1:pos:R:3 gdb_64336=T pbc="F F F"
C        0.06790000       1.44410000       0.17090000
C       -0.12530000      -0.05250000      -0.06710000
C       -1.61080000      -0.38870000      -0.23490000
C        0.73330000      -0.55270000      -1.23030000
C        0.87170000      -2.05970000      -1.15310000
O        1.40300000      -2.45660000       0.11570000
C        1.05550000      -1.81670000       1.25480000
O        1.40980000      -2.23440000       2.31670000
O        0.32020000      -0.68940000       1.16930000
H        1.12190000       1.67020000       0.35300000
H       -0.26690000       2.01470000      -0.70080000
H       -0.50840000       1.76800000       1.04140000
H       -2.03070000       0.15160000      -1.08910000
H       -1.77310000      -1.45860000      -0.39040000
H       -2.15840000      -0.09530000       0.66400000
H        0.28220000      -0.26050000      -2.18350000
H        1.72790000      -0.09650000      -1.17760000
H       -0.08880000      -2.56460000      -1.31090000
H        1.57610000      -2.44200000      -1.89520000
