16
Properties=species:S:1:pos:R:3 gdb_125499=T pbc="F F F"
C       -0.03980000       1.45120000      -0.00770000
C       -0.00790000      -0.03740000       0.00270000
N       -0.00370000      -0.75820000      -1.09430000
N        0.02900000      -2.04160000      -0.61040000
C        0.04460000      -3.16400000      -1.45010000
O        0.03140000      -3.12450000      -2.64570000
C        0.04250000      -2.01190000       0.77030000
C        0.07740000      -3.21400000       1.65360000
N        0.01980000      -0.77000000       1.17650000
H        0.84040000       1.85530000       0.50210000
H       -0.06290000       1.82070000      -1.03360000
H       -0.92070000       1.81770000       0.52860000
H        0.07080000      -4.09560000      -0.85840000
H        0.97370000      -3.81890000       1.48270000
H        0.08070000      -2.87190000       2.68880000
H       -0.79540000      -3.85690000       1.50090000
