14
Properties=species:S:1:pos:R:3 gdb_26782=T pbc="F F F"
C       -0.08100000       1.54320000       0.05410000
C       -0.04280000       0.05210000       0.00070000
C        0.03790000      -0.78160000      -1.08910000
N        0.04510000      -0.58740000      -2.44880000
O        0.03490000      -2.06420000      -0.66200000
C       -0.04990000      -1.96230000       0.70720000
N       -0.09980000      -0.73730000       1.13070000
C       -0.05810000      -3.16090000       1.45280000
N       -0.06430000      -4.14840000       2.05860000
H        0.34230000       1.98770000      -0.85290000
H       -1.10320000       1.92400000       0.16200000
H        0.49760000       1.90530000       0.90790000
H        0.31450000       0.34350000      -2.73180000
H        0.52940000      -1.30430000      -2.97200000
