21
Properties=species:S:1:pos:R:3 gdb_95026=T pbc="F F F"
O        0.31980000       1.06350000      -0.75900000
C        0.05770000      -0.09610000       0.01730000
C        0.44980000       0.04030000       1.51500000
C       -0.58690000      -0.77820000       2.32640000
C       -1.84720000      -0.87690000       1.43880000
C       -2.92900000       0.22380000       1.46730000
C       -2.36740000       1.60080000       1.25840000
C       -2.50490000       0.69760000       0.06790000
C       -1.44430000      -0.41790000       0.00220000
H        1.27040000       1.21280000      -0.75940000
H        0.59400000      -0.95950000      -0.40940000
H        1.47440000      -0.30050000       1.69900000
H        0.42000000       1.10080000       1.78070000
H       -0.19870000      -1.78400000       2.52120000
H       -0.79390000      -0.32560000       3.30100000
H       -2.29690000      -1.87120000       1.47600000
H       -3.92890000       0.07910000       1.85990000
H       -3.11250000       2.39050000       1.29490000
H       -1.40510000       1.90730000       1.64940000
H       -3.13040000       0.97770000      -0.77070000
H       -1.69400000      -1.13940000      -0.77800000
