13
Properties=species:S:1:pos:R:3 gdb_133601=T pbc="F F F"
F        0.14900000       0.08300000       0.04600000
C       -0.00880000       1.40930000      -0.00400000
F        1.19460000       1.96520000      -0.19510000
F       -0.77010000       1.69260000      -1.07000000
C       -0.63660000       1.94510000       1.27350000
N       -1.92620000       1.31830000       1.61850000
C       -1.49210000       0.95010000       2.99270000
C       -0.07300000       1.39570000       2.61330000
O        1.00290000       1.35200000       3.11720000
H       -0.61720000       3.04170000       1.22540000
H       -2.72210000       1.94070000       1.57160000
H       -1.91140000       1.55400000       3.80900000
H       -1.61480000      -0.11010000       3.23780000
