18
Properties=species:S:1:pos:R:3 gdb_83470=T pbc="F F F"
O       -0.36670000       1.39130000      -0.14870000
C       -0.31520000      -0.00440000      -0.08550000
C       -0.50090000      -0.79620000       1.18980000
C       -1.47330000      -0.06690000       2.12670000
C       -2.56750000      -0.09390000       1.01130000
C       -1.56890000      -0.78850000       0.08430000
O       -1.92330000      -1.82960000      -0.77090000
C       -2.18020000      -1.49090000      -2.05890000
N       -2.56400000      -2.37550000      -2.87080000
H        0.43700000       1.74070000       0.25140000
H        0.38800000      -0.47170000      -0.77650000
H        0.19840000      -1.57420000       1.47180000
H       -1.74810000      -0.65910000       3.00070000
H       -1.15230000       0.92550000       2.45190000
H       -3.39530000      -0.75800000       1.26630000
H       -2.95750000       0.86710000       0.66810000
H       -2.00990000      -0.42740000      -2.26750000
H       -2.70340000      -1.96210000      -3.79060000
