21
Properties=species:S:1:pos:R:3 gdb_110607=T pbc="F F F"
C       -0.30070000       1.39920000       0.18340000
C        0.20440000      -0.01540000      -0.12440000
C        0.81740000      -0.68640000       1.09050000
C        0.04080000      -1.32850000       2.21390000
C       -1.16970000      -2.08370000       1.72160000
C       -1.00540000      -3.56980000       1.97450000
C       -0.27040000      -2.92970000       0.82330000
O       -0.54200000      -3.26720000      -0.49550000
C        0.95230000      -2.17620000       1.29330000
H        0.50980000       2.04270000       0.54420000
H       -0.72780000       1.87090000      -0.70720000
H       -1.07440000       1.38060000       0.95850000
H       -0.61080000      -0.62650000      -0.52060000
H        0.96060000       0.02840000      -0.91880000
H        1.69150000      -0.15510000       1.47010000
H        0.23720000      -1.09250000       3.25410000
H       -2.13440000      -1.65980000       1.46880000
H       -0.47760000      -3.92300000       2.85690000
H       -1.85450000      -4.17770000       1.67490000
H       -0.18740000      -4.14710000      -0.66250000
H        1.90200000      -2.63200000       1.55480000
