18
Properties=species:S:1:pos:R:3 gdb_31489=T pbc="F F F"
C        0.28780000       1.43990000       0.02340000
C        0.02320000      -0.01910000       0.02820000
C       -1.09010000      -0.80020000       0.09000000
N       -2.43460000      -0.44660000       0.21700000
N       -0.72170000      -2.13830000       0.08180000
C        0.57560000      -2.12400000       0.01850000
C        1.51220000      -3.28640000      -0.07940000
N        2.13260000      -3.48290000      -1.39820000
O        1.10620000      -0.88220000      -0.02360000
H        0.97650000       1.72880000       0.82620000
H        0.72330000       1.78710000      -0.92220000
H       -0.64770000       1.98340000       0.18200000
H       -2.69780000       0.36200000      -0.32990000
H       -3.03160000      -1.23120000      -0.01000000
H        2.31570000      -3.17120000       0.65640000
H        0.94820000      -4.18420000       0.18440000
H        1.40140000      -3.58780000      -2.09690000
H        2.64420000      -2.64270000      -1.65430000
