21
Properties=species:S:1:pos:R:3 gdb_102684=T pbc="F F F"
O       -0.89660000       1.65680000       0.42700000
C       -0.41210000       0.32900000       0.27470000
C       -1.60670000      -0.58940000       0.01340000
C       -2.26700000      -0.23110000      -1.32880000
O       -3.46290000      -0.95860000      -1.57190000
C       -1.22150000      -2.07700000       0.05140000
C       -0.99450000      -2.63360000       1.47310000
C       -0.62480000      -4.04390000       1.47400000
C       -0.31840000      -5.20600000       1.44720000
H       -0.14320000       2.24430000       0.53440000
H        0.29440000       0.25640000      -0.56940000
H        0.12750000       0.00500000       1.17740000
H       -2.34250000      -0.38920000       0.80770000
H       -2.43750000       0.85150000      -1.37290000
H       -1.59040000      -0.49480000      -2.15120000
H       -4.12740000      -0.64430000      -0.95060000
H       -2.02210000      -2.64870000      -0.42600000
H       -0.31780000      -2.24310000      -0.54870000
H       -0.21450000      -2.06020000       1.98980000
H       -1.90960000      -2.49660000       2.06440000
H       -0.04950000      -6.23290000       1.43460000
