20
Properties=species:S:1:pos:R:3 gdb_9545=T pbc="F F F"
C       -0.23460000       1.48060000      -0.09570000
C        0.04470000      -0.01460000      -0.02230000
C        1.34020000      -0.50990000      -0.70110000
O        1.89920000      -0.95310000       0.55420000
C        0.67210000      -0.60850000       1.27570000
C        0.97040000       0.31000000       2.44790000
C        0.03190000      -1.92480000       1.73140000
O        0.94700000      -2.68440000       2.49410000
H        0.64500000       2.07350000       0.17270000
H       -0.52540000       1.76290000      -1.11340000
H       -1.05230000       1.76970000       0.57270000
H       -0.84550000      -0.56850000      -0.33630000
H        1.22230000      -1.33450000      -1.41480000
H        1.95740000       0.27080000      -1.16320000
H        1.58040000       1.16190000       2.14030000
H        0.04190000       0.68450000       2.89230000
H        1.51200000      -0.25050000       3.21450000
H       -0.84180000      -1.73370000       2.36510000
H       -0.31030000      -2.48540000       0.84620000
H        1.75240000      -2.71650000       1.96050000
