15
Properties=species:S:1:pos:R:3 gdb_48654=T pbc="F F F"
O       -0.10840000      -0.01050000      -0.01360000
C       -0.02880000       1.19630000      -0.02070000
C        1.23930000       1.92750000       0.03220000
C        1.37230000       3.40040000       0.37000000
C        1.80190000       2.98360000      -0.99280000
O        3.08810000       2.37590000      -0.96850000
C        2.62240000       1.31050000      -0.08900000
C        1.27820000       3.47510000      -2.21680000
C        0.84540000       3.90110000      -3.25490000
H       -0.93460000       1.83990000      -0.08000000
H        0.43100000       3.93950000       0.41520000
H        2.12820000       3.71210000       1.08560000
H        3.22190000       1.24040000       0.82400000
H        2.61070000       0.35280000      -0.61490000
H        0.46500000       4.27360000      -4.17430000
