19
Properties=species:S:1:pos:R:3 gdb_68633=T pbc="F F F"
C        0.14810000       1.53470000       0.03190000
C       -0.00920000       0.04390000      -0.05930000
C        0.31760000      -0.81540000      -1.30770000
C       -0.45130000      -1.88850000      -0.48040000
C        0.49390000      -2.01030000       0.71840000
O        0.73870000      -0.61300000       0.98850000
C       -1.38890000      -0.70620000      -0.02030000
C       -2.15720000      -0.76760000       1.26650000
O       -3.36040000      -0.68260000       1.33210000
H        1.20080000       1.81180000      -0.08010000
H       -0.42890000       2.03020000      -0.75340000
H       -0.19820000       1.90170000       1.00280000
H       -0.21890000      -0.49890000      -2.20320000
H        1.37470000      -0.99320000      -1.52240000
H       -0.85560000      -2.80100000      -0.91490000
H        0.05490000      -2.49510000       1.59680000
H        1.43200000      -2.51900000       0.46740000
H       -2.05770000      -0.40210000      -0.82730000
H       -1.54380000      -0.87920000       2.18530000
