15
Properties=species:S:1:pos:R:3 gdb_110796=T pbc="F F F"
O        0.12950000       1.24130000      -0.41290000
C        0.04630000       0.00340000       0.26900000
C       -1.34060000      -0.60480000       0.17670000
C       -1.88180000      -1.19690000      -1.10550000
O       -0.92650000      -1.56440000      -2.08210000
C       -0.15640000      -2.59190000      -1.61010000
O        0.73000000      -3.10510000      -2.20850000
O       -0.53680000      -2.91530000      -0.33990000
C       -1.61070000      -2.09070000       0.06380000
H        0.07260000       1.05700000      -1.35670000
H        0.81080000      -0.70320000      -0.07780000
H        0.27060000       0.21810000       1.31820000
H       -2.10430000      -0.07790000       0.74330000
H       -2.84830000      -0.95210000      -1.52500000
H       -2.34360000      -2.61430000       0.66290000
