16
Properties=species:S:1:pos:R:3 gdb_129765=T pbc="F F F"
N        0.02610000       1.46400000       0.15440000
C       -0.03280000       0.06420000       0.04400000
C       -1.14970000      -0.76100000       0.03510000
C       -2.59720000      -0.85290000       0.04860000
C       -2.95190000      -2.15180000       0.01200000
C       -1.72220000      -3.03990000      -0.02950000
N       -0.66860000      -2.04220000      -0.00900000
N        0.65860000      -2.12830000      -0.02340000
C        1.05420000      -0.84690000       0.00820000
H        0.91130000       1.83230000      -0.16990000
H       -0.72010000       1.93040000      -0.34570000
H       -3.27130000      -0.00850000       0.08810000
H       -3.95590000      -2.55090000       0.01440000
H       -1.65430000      -3.71170000       0.83530000
H       -1.67310000      -3.65720000      -0.93540000
H        2.10920000      -0.61130000       0.00710000
