18
Properties=species:S:1:pos:R:3 gdb_77410=T pbc="F F F"
C       -0.02120000       1.57860000       0.01590000
C       -0.00980000       0.08560000       0.08040000
C        1.15370000      -0.77910000      -0.36420000
O        2.40460000      -0.16600000      -0.42520000
C        0.59830000      -0.94340000       1.03790000
O        1.43070000      -0.72830000       2.13360000
C       -0.70040000      -1.68580000       0.99960000
C       -1.84320000      -0.78930000       1.29070000
N       -1.25060000      -0.71870000      -0.05730000
H        1.00220000       1.95980000       0.04950000
H       -0.47280000       1.90320000      -0.92820000
H       -0.58950000       2.02740000       0.83670000
H        1.01170000      -1.53540000      -1.13460000
H        2.70980000      -0.06680000       0.48740000
H        1.90030000      -1.55040000       2.32460000
H       -0.81730000      -2.75840000       0.87670000
H       -2.83280000      -1.23570000       1.29030000
H       -1.71170000       0.04560000       1.97400000
