20
Properties=species:S:1:pos:R:3 gdb_15004=T pbc="F F F"
C       -0.02280000       1.38330000       0.06820000
O       -0.01880000      -0.03380000       0.05000000
C       -1.28100000      -0.60540000       0.05050000
C       -1.14050000      -2.11270000      -0.13280000
C       -2.51360000      -2.79190000      -0.01990000
C       -3.22400000      -2.35440000       1.26900000
C       -3.23040000      -0.82750000       1.36800000
O       -1.91530000      -0.30040000       1.28570000
H        1.01920000       1.70290000      -0.00040000
H       -0.57860000       1.78980000      -0.79060000
H       -0.46540000       1.77330000       0.99070000
H       -1.89940000      -0.17520000      -0.76720000
H       -0.67200000      -2.31720000      -1.10050000
H       -0.46360000      -2.47520000       0.64890000
H       -3.13060000      -2.51260000      -0.88530000
H       -2.40400000      -3.88050000      -0.05520000
H       -4.25210000      -2.73290000       1.29970000
H       -2.69810000      -2.76120000       2.14120000
H       -3.86000000      -0.40280000       0.56600000
H       -3.63570000      -0.48680000       2.32490000
