13
Properties=species:S:1:pos:R:3 gdb_9994=T pbc="F F F"
N       -0.24070000       1.37810000       0.12580000
C       -0.14770000       0.12520000       0.06240000
O       -1.27780000      -0.62460000      -0.00070000
C       -1.11520000      -2.04230000       0.08880000
C       -1.29500000      -2.45410000       1.56610000
O       -0.52920000      -3.16810000       2.14980000
C       -2.12760000      -2.70330000      -0.71930000
C       -2.98290000      -3.29190000      -1.32310000
H        0.68530000       1.79990000       0.13980000
H        0.77440000      -0.47070000       0.03670000
H       -0.10770000      -2.34670000      -0.22240000
H       -2.19550000      -2.00740000       2.03520000
H       -3.73050000      -3.80320000      -1.87890000
