15
Properties=species:S:1:pos:R:3 gdb_13926=T pbc="F F F"
O       -0.23460000       0.00660000       0.06750000
C       -0.12050000       1.20080000       0.01620000
N       -1.02010000       2.23870000      -0.02240000
C       -0.03190000       3.31990000      -0.09240000
C        1.06500000       2.21840000       0.00390000
C        2.15770000       2.15670000       1.08610000
C        3.11690000       1.98670000      -0.10900000
O        2.02320000       2.12970000      -1.04750000
H       -2.02860000       2.25020000      -0.00460000
H       -0.01340000       3.85830000      -1.04480000
H       -0.07030000       4.02680000       0.74300000
H        2.28600000       3.07500000       1.66150000
H        2.08380000       1.30400000       1.76200000
H        3.87130000       2.76900000      -0.24600000
H        3.59240000       1.00390000      -0.19240000
