17
Properties=species:S:1:pos:R:3 gdb_53524=T pbc="F F F"
C        0.24500000       1.50380000       0.06350000
C        0.10900000       0.05560000       0.12730000
C        0.01370000      -1.14360000       0.18530000
C       -0.14710000      -2.59210000       0.24640000
C       -1.59980000      -3.02560000      -0.00360000
C       -2.12300000      -2.64210000      -1.38740000
O       -3.25740000      -2.83690000      -1.73790000
C       -1.81090000      -4.52610000       0.19440000
O       -0.95830000      -5.27230000       0.59580000
H        0.99410000       1.80040000      -0.67880000
H       -0.70190000       1.98050000      -0.21250000
H        0.55410000       1.91650000       1.03010000
H        0.50320000      -3.08100000      -0.49030000
H        0.17350000      -2.98140000       1.21810000
H       -2.27820000      -2.53580000       0.71010000
H       -1.36830000      -2.19000000      -2.06570000
H       -2.83040000      -4.87410000      -0.06920000
