13
Properties=species:S:1:pos:R:3 gdb_23775=T pbc="F F F"
F        0.05770000       0.06240000       0.17880000
C        0.01730000       1.39500000       0.05810000
C       -1.17780000       2.01640000       0.01100000
N       -1.23720000       3.38590000      -0.11290000
C       -0.08130000       4.12260000      -0.18870000
C        1.13390000       3.53450000      -0.14480000
C        1.29970000       2.09200000      -0.01510000
N        2.46320000       1.53730000       0.02620000
H       -2.11410000       1.47750000       0.06720000
H       -2.13180000       3.84120000      -0.14720000
H       -0.21590000       5.19260000      -0.28480000
H        2.03320000       4.13400000      -0.20620000
H        2.35490000       0.52560000       0.11880000
