15
Properties=species:S:1:pos:R:3 gdb_46083=T pbc="F F F"
N       -0.02840000       1.27000000       0.35950000
C       -0.00430000       0.05090000       0.00920000
O        1.17490000      -0.61880000      -0.19370000
C        1.12800000      -1.80260000      -0.98430000
C        0.06810000      -2.78610000      -0.44880000
C       -1.24520000      -2.04550000      -0.29650000
C       -1.24480000      -0.72480000      -0.11370000
C       -0.04740000      -3.93960000      -1.34250000
N       -0.13050000      -4.84430000      -2.05610000
H        0.92270000       1.64070000       0.41320000
H        0.89490000      -1.55330000      -2.02660000
H        2.12860000      -2.23500000      -0.93990000
H        0.39290000      -3.16110000       0.53270000
H       -2.16500000      -2.61850000      -0.33070000
H       -2.15790000      -0.15600000       0.01000000
