20
Properties=species:S:1:pos:R:3 gdb_58029=T pbc="F F F"
C        0.90040000      -0.50570000      -0.83500000
N       -0.12100000      -0.01310000       0.08260000
C        0.05220000       1.41440000       0.33120000
C       -1.49050000      -0.29580000      -0.36680000
C       -1.69170000      -1.69510000      -0.73780000
C       -1.92540000      -2.83790000      -1.02920000
C       -2.51270000       0.04750000       0.76300000
C       -2.29280000      -0.63300000       2.09550000
O       -3.42190000       0.80670000       0.54160000
H        1.88670000      -0.31050000      -0.40370000
H        0.79120000      -1.58230000      -0.97510000
H        0.85980000      -0.01930000      -1.82730000
H       -0.06620000       2.02650000      -0.58230000
H       -0.67530000       1.77050000       1.06610000
H        1.05340000       1.59120000       0.73350000
H       -1.78260000       0.33900000      -1.22420000
H       -2.12060000      -3.84670000      -1.29890000
H       -1.24690000      -0.54230000       2.39890000
H       -2.96160000      -0.20600000       2.84300000
H       -2.49810000      -1.70350000       1.98800000
