22
Properties=species:S:1:pos:R:3 gdb_122431=T pbc="F F F"
O       -0.14320000       1.47660000      -0.14500000
C        0.00360000       0.06580000      -0.08780000
C       -1.38850000      -0.54390000       0.00580000
C       -1.36240000      -2.06950000       0.10050000
N       -2.69840000      -2.62610000       0.15880000
C       -3.50590000      -2.44800000       1.38610000
C       -4.10440000      -3.85730000       1.13660000
O       -5.33280000      -3.87150000       0.45030000
C       -2.85250000      -4.09260000       0.25110000
H        0.73280000       1.86780000      -0.20820000
H        0.51930000      -0.31780000      -0.98380000
H        0.60460000      -0.23680000       0.78580000
H       -1.89140000      -0.12170000       0.88420000
H       -1.97350000      -0.24340000      -0.86990000
H       -0.86380000      -2.48860000      -0.78350000
H       -0.75980000      -2.37960000       0.97990000
H       -2.89780000      -2.41040000       2.30630000
H       -4.20300000      -1.60350000       1.37920000
H       -4.22790000      -4.50510000       2.00470000
H       -5.23550000      -3.29760000      -0.31850000
H       -3.00410000      -4.61200000      -0.70180000
H       -2.03670000      -4.58500000       0.80750000
