18
Properties=species:S:1:pos:R:3 gdb_26153=T pbc="F F F"
C       -0.38510000       1.98090000       1.00610000
C       -0.58860000       0.62090000       0.42740000
N        1.97700000      -1.40920000      -0.65350000
H        2.54090000      -2.03110000      -0.08040000
H        1.08170000      -1.87730000      -0.78980000
H        2.42830000      -1.38340000      -1.56390000
C       -1.77640000       0.01430000       0.25220000
C       -1.90240000      -1.35190000      -0.33490000
O       -1.08680000      -2.13530000      -0.73870000
O       -3.25820000      -1.65590000      -0.36530000
C       -3.93960000      -0.57670000       0.15750000
C       -3.14290000       0.43000000       0.53710000
H        0.26240000       1.92320000       1.89020000
H        0.14140000       2.62280000       0.28850000
H       -1.31810000       2.47210000       1.29110000
H        0.31040000       0.08240000       0.12430000
H       -5.01210000      -0.69470000       0.18690000
H       -3.46530000       1.36360000       0.96930000
