15
Properties=species:S:1:pos:R:3 gdb_29919=T pbc="F F F"
C       -0.06070000       1.45660000       0.02330000
N        0.00160000       0.00870000       0.00720000
C        0.02040000      -0.81950000      -1.09690000
N        0.03440000      -2.08160000      -0.77650000
C        0.04200000      -2.10060000       0.60890000
C        0.06470000      -3.27200000       1.40020000
N        0.08830000      -4.18740000       2.11220000
C        0.02000000      -0.80730000       1.10730000
N       -0.07910000      -0.30840000       2.39770000
H        0.90940000       1.89980000       0.27460000
H       -0.35740000       1.80940000      -0.96560000
H       -0.80150000       1.78520000       0.75700000
H        0.02640000      -0.41640000      -2.09880000
H       -0.09770000      -1.05450000       3.08250000
H        0.63850000       0.36400000       2.64390000
