17
Properties=species:S:1:pos:R:3 gdb_102237=T pbc="F F F"
C       -0.09890000       1.45170000       0.03800000
C        0.09180000      -0.04090000      -0.03090000
O        1.13430000      -0.62340000      -0.15070000
O       -1.11460000      -0.67620000       0.06060000
C       -1.07530000      -2.11330000       0.01720000
C       -2.32770000      -2.62030000       0.73770000
N       -2.26180000      -2.22420000       2.13930000
C       -1.03530000      -2.57410000      -1.37910000
N       -1.03420000      -2.95860000      -2.46810000
H        0.87240000       1.94160000      -0.01200000
H       -0.72800000       1.78340000      -0.79290000
H       -0.61050000       1.72500000       0.96500000
H       -0.17640000      -2.45910000       0.53360000
H       -3.21280000      -2.26170000       0.18880000
H       -2.32560000      -3.71310000       0.67540000
H       -2.41340000      -1.22380000       2.21740000
H       -3.00410000      -2.67570000       2.66250000
