16
Properties=species:S:1:pos:R:3 gdb_22436=T pbc="F F F"
C       -0.00930000       1.43050000       1.11260000
C       -0.25030000       0.41270000      -0.01360000
C        0.79750000      -0.69710000       0.10430000
O        1.69310000      -0.87950000      -0.67440000
C       -1.63460000      -0.21070000       0.01640000
N       -2.34750000      -0.04730000       1.07470000
O       -3.57330000      -0.68510000       0.99770000
C       -2.04060000      -0.96690000      -1.12060000
C       -2.32280000      -1.59120000      -2.11040000
H        0.97500000       1.89060000       0.99100000
H       -0.77180000       2.21210000       1.08870000
H       -0.05690000       0.95500000       2.09560000
H       -0.09930000       0.88040000      -0.99140000
H        0.67680000      -1.32490000       1.01730000
H       -3.98120000      -0.45730000       1.84110000
H       -2.58470000      -2.14820000      -2.97640000
