16
Properties=species:S:1:pos:R:3 gdb_54057=T pbc="F F F"
N       -0.20150000       1.34100000       0.00420000
C       -0.01190000      -0.00260000      -0.02970000
O        1.07180000      -0.53990000      -0.14270000
C       -1.31700000      -0.83790000       0.01040000
C       -0.99680000      -2.34460000       0.06250000
C       -2.18520000      -3.16990000      -0.11440000
C       -3.18440000      -3.82180000      -0.26300000
C       -2.27700000      -0.41670000       1.11610000
O       -2.57730000       0.72740000       1.36340000
H        0.62440000       1.91370000       0.08470000
H       -1.08370000       1.69730000       0.34720000
H       -1.84850000      -0.61870000      -0.92670000
H       -0.25190000      -2.56390000      -0.70650000
H       -0.50930000      -2.58030000       1.01620000
H       -4.05410000      -4.41650000      -0.39630000
H       -2.71520000      -1.25340000       1.69640000
