25
Properties=species:S:1:pos:R:3 gdb_115973=T pbc="F F F"
C       -0.08490000       1.56070000       0.10280000
C        0.00330000       0.03360000       0.00880000
C        0.70930000      -0.49480000      -1.24950000
C        0.87100000      -2.02120000      -1.20610000
C        1.69080000      -2.53340000      -2.39690000
C        1.25880000      -1.90250000      -3.69370000
C        0.48570000      -0.81750000      -3.77940000
C        0.05140000      -0.24110000      -5.10020000
C       -0.01230000      -0.09130000      -2.54780000
H        0.91000000       2.01770000       0.05040000
H       -0.68730000       1.98590000      -0.70590000
H       -0.54160000       1.86960000       1.04840000
H        0.53480000      -0.34770000       0.89050000
H       -1.00760000      -0.39530000       0.05720000
H        1.71840000      -0.05520000      -1.28000000
H        1.34060000      -2.32650000      -0.26380000
H       -0.12540000      -2.48390000      -1.22500000
H        2.76100000      -2.33740000      -2.22830000
H        1.60650000      -3.62550000      -2.47040000
H        1.60710000      -2.37790000      -4.60910000
H        0.42020000      -0.83300000      -5.94240000
H       -1.04360000      -0.19520000      -5.17100000
H        0.41110000       0.78910000      -5.22270000
H       -1.09490000      -0.26890000      -2.43840000
H        0.08300000       0.99000000      -2.71270000
