13
Properties=species:S:1:pos:R:3 gdb_133308=T pbc="F F F"
N        0.05100000       1.40030000       0.15540000
C       -0.00660000       0.02550000       0.05140000
C       -1.15740000      -0.68450000       0.03480000
F       -2.33070000      -0.05580000       0.05320000
C       -1.17200000      -2.12670000      -0.00430000
N       -2.22960000      -2.82380000      -0.01860000
O        0.08750000      -2.73360000      -0.03640000
N        1.28270000      -2.03550000      -0.02400000
C        1.21140000      -0.75390000       0.02120000
H        0.85110000       1.84500000      -0.26890000
H       -0.81740000       1.87700000      -0.03960000
H       -2.00580000      -3.81850000      -0.05420000
H        2.17530000      -0.25190000       0.04010000
