17
Properties=species:S:1:pos:R:3 gdb_31831=T pbc="F F F"
C        0.04030000       1.44870000       0.07220000
N       -0.15470000       0.02320000      -0.10560000
C        0.55000000      -0.66810000      -1.09120000
C        1.21010000      -0.03400000      -2.14740000
N        1.84550000      -0.69200000      -3.12800000
C        1.86150000      -2.01240000      -3.09560000
O        2.51130000      -2.66540000      -4.09150000
C        1.24590000      -2.76020000      -2.08460000
C        0.58760000      -2.07490000      -1.08410000
H        1.09540000       1.73670000       0.20760000
H       -0.34850000       1.99890000      -0.79180000
H       -0.52340000       1.77420000       0.94930000
H       -0.23080000      -0.48670000       0.76130000
H        1.23120000       1.04850000      -2.21920000
H        2.85810000      -1.97450000      -4.67190000
H        1.29230000      -3.84200000      -2.10250000
H        0.09080000      -2.62050000      -0.28650000
