25
Properties=species:S:1:pos:R:3 gdb_120476=T pbc="F F F"
C       -0.04380000       1.59040000      -0.12640000
C        0.09580000       0.08030000      -0.00140000
C        1.13050000      -0.66390000      -0.88730000
C        1.39940000      -1.62950000       0.30060000
C        2.80880000      -2.15330000       0.54570000
C        3.26570000      -3.13430000      -0.52740000
O        4.58590000      -3.55120000      -0.20830000
C        0.76990000      -0.56250000       1.26020000
C        1.76720000       0.32840000       1.99850000
H        0.91660000       2.09900000       0.00600000
H       -0.42660000       1.86260000      -1.11660000
H       -0.74000000       1.99380000       0.61780000
H       -0.88820000      -0.38260000      -0.13990000
H        0.78160000      -1.08950000      -1.83220000
H        2.00420000      -0.03540000      -1.09640000
H        0.70990000      -2.48050000       0.23140000
H        3.52870000      -1.32780000       0.58220000
H        2.86250000      -2.65900000       1.51840000
H        2.57530000      -3.99350000      -0.56360000
H        3.23100000      -2.64920000      -1.51640000
H        4.88390000      -4.15540000      -0.89430000
H        0.06390000      -0.97400000       1.98940000
H        2.50380000       0.78200000       1.32720000
H        1.25090000       1.14350000       2.51660000
H        2.31950000      -0.24370000       2.75110000
