15
Properties=species:S:1:pos:R:3 gdb_9082=T pbc="F F F"
N       -0.10430000       1.43450000      -0.01230000
C        0.01000000      -0.02010000      -0.04030000
C        0.69860000      -0.60340000      -1.29110000
O       -0.07240000      -0.15340000      -2.39840000
C        0.39250000      -0.46460000      -3.62960000
N       -0.24470000      -0.08660000      -4.64810000
C        0.71750000      -0.49830000       1.15600000
N        1.30580000      -0.88940000       2.06960000
H        0.81910000       1.85920000      -0.00470000
H       -0.56360000       1.73070000      -0.86890000
H       -1.00740000      -0.43040000      -0.01140000
H        1.73090000      -0.23460000      -1.35690000
H        0.71720000      -1.69990000      -1.24670000
H        1.32510000      -1.04420000      -3.61210000
H        0.22830000      -0.39680000      -5.49420000
