18
Properties=species:S:1:pos:R:3 gdb_124925=T pbc="F F F"
C        0.07610000       1.53430000       0.07750000
C       -0.01560000       0.02780000       0.02470000
C       -1.19720000      -0.65120000      -0.00590000
C       -2.55180000      -0.01320000       0.00830000
C       -1.18500000      -2.11450000      -0.05670000
N       -2.27640000      -2.79570000      -0.08680000
N        0.09830000      -2.66530000      -0.06830000
N        1.27530000      -2.02110000      -0.03880000
C        1.21070000      -0.72640000       0.00590000
H        1.11910000       1.86030000       0.09420000
H       -0.40300000       1.99870000      -0.79060000
H       -0.41200000       1.93750000       0.97070000
H       -3.11910000      -0.31830000      -0.87740000
H       -3.12970000      -0.37950000       0.86340000
H       -2.50040000       1.07530000       0.04680000
H       -2.09470000      -3.80000000      -0.12070000
H        0.18460000      -3.67050000      -0.10260000
H        2.16670000      -0.21360000       0.02940000
