14
Properties=species:S:1:pos:R:3 gdb_24023=T pbc="F F F"
N       -0.21860000      -1.18860000      -0.27530000
C       -0.12440000      -0.04260000      -0.16150000
C       -0.01650000       1.40290000      -0.01480000
C       -0.30730000       1.96920000       1.43990000
N        1.07770000       2.48330000       1.41940000
C        2.16220000       3.15480000       1.89070000
N        3.13140000       3.09740000       0.99310000
C        2.66880000       2.37960000      -0.09050000
C        1.38070000       1.99740000       0.18160000
H       -0.61540000       1.89080000      -0.78890000
H       -1.07170000       2.74730000       1.48180000
H       -0.48680000       1.20880000       2.20140000
H        2.21050000       3.64770000       2.84830000
H        3.28910000       2.19730000      -0.95260000
