21
Properties=species:S:1:pos:R:3 gdb_61821=T pbc="F F F"
C       -0.24760000       1.42280000       0.16350000
C        0.06680000      -0.06580000      -0.04260000
C        0.84960000      -0.30860000      -1.35360000
C        0.04220000       0.04040000      -2.58030000
O        0.39880000       0.77110000      -3.46920000
C        0.83360000      -0.63020000       1.14040000
C        0.09310000      -1.13080000       2.36630000
C        0.79830000      -2.09840000       1.44710000
O        0.04810000      -2.89890000       0.57670000
H        0.67460000       2.01040000       0.24010000
H       -0.82740000       1.83110000      -0.67070000
H       -0.82070000       1.57710000       1.08270000
H       -0.87700000      -0.61840000      -0.12100000
H        1.78790000       0.25540000      -1.37580000
H        1.08420000      -1.37970000      -1.41630000
H       -0.95920000      -0.45330000      -2.61620000
H        1.78560000      -0.13720000       1.32540000
H        0.50390000      -0.94450000       3.35270000
H       -0.99150000      -1.12200000       2.31620000
H        1.71660000      -2.56130000       1.80810000
H       -0.37770000      -3.58900000       1.09540000
