17
Properties=species:S:1:pos:R:3 gdb_48935=T pbc="F F F"
O       -0.31130000       0.44960000      -0.77500000
C        0.09750000       1.08340000       0.17350000
C        1.30340000       1.92020000       0.15620000
C        1.73960000       2.96120000       1.17890000
C        2.58800000       3.66480000       0.03860000
C        3.95880000       3.02740000       0.08150000
C        3.86580000       1.76270000      -0.34550000
C        2.48010000       1.50540000      -0.82040000
C        1.78860000       2.80550000      -0.99390000
H       -0.44530000       1.06860000       1.14630000
H        0.88940000       3.58610000       1.46510000
H        2.28450000       2.64250000       2.07300000
H        2.53810000       4.75060000      -0.00540000
H        4.81640000       3.48830000       0.55550000
H        4.63970000       1.00660000      -0.31790000
H        2.21150000       0.66390000      -1.44630000
H        1.22030000       3.12310000      -1.85910000
