19
Properties=species:S:1:pos:R:3 gdb_75202=T pbc="F F F"
C       -0.06770000       1.49170000       0.06310000
C       -0.02080000       0.00030000      -0.02760000
C        0.01000000      -0.76870000      -1.12270000
C        0.01550000      -2.25270000      -0.81250000
C        0.06880000      -2.28940000       0.71050000
O       -0.65100000      -3.27910000       1.37180000
C        1.27620000      -1.68790000       1.40570000
C        0.01600000      -0.86200000       1.19950000
O       -0.81980000      -0.56850000       2.28360000
H        0.82840000       1.89130000       0.55640000
H       -0.14630000       1.95300000      -0.92460000
H       -0.92650000       1.81280000       0.66400000
H        0.05410000      -0.39100000      -2.13870000
H       -0.89480000      -2.75160000      -1.16850000
H        0.86370000      -2.77240000      -1.27480000
H       -1.23760000      -2.82290000       1.99060000
H        1.44010000      -2.07310000       2.40790000
H        2.17010000      -1.42630000       0.84800000
H       -0.29240000      -0.17540000       2.98600000
