15
Properties=species:S:1:pos:R:3 gdb_30496=T pbc="F F F"
C       -0.05220000       1.43240000       0.00750000
N        0.02300000      -0.01620000       0.00340000
C       -1.03910000      -0.69250000       0.00940000
O       -2.29690000       0.00190000       0.02030000
C       -3.43890000      -0.68870000       0.02660000
C       -3.48710000      -2.03140000       0.02340000
C       -2.20370000      -2.68260000       0.01270000
O       -2.21670000      -4.02040000       0.00940000
N       -1.07010000      -2.06500000       0.00620000
H        0.96200000       1.83880000      -0.00050000
H       -0.58570000       1.82390000      -0.86950000
H       -0.56970000       1.81940000       0.89600000
H       -4.30950000      -0.04130000       0.03450000
H       -4.41420000      -2.58370000       0.02860000
H       -1.28830000      -4.30090000       0.00200000
