17
Properties=species:S:1:pos:R:3 gdb_1620=T pbc="F F F"
C        0.05480000       1.54040000       0.15820000
C       -0.02640000       0.02080000       0.01590000
O       -1.36560000      -0.44240000       0.08440000
C        0.67690000      -0.50360000      -1.27040000
C        0.79290000      -2.03980000      -1.25130000
C       -0.05070000      -0.04640000      -2.45450000
C       -0.70290000       0.31710000      -3.39850000
H        1.09500000       1.87750000       0.22260000
H       -0.40890000       2.03570000      -0.70160000
H       -0.46940000       1.85580000       1.06390000
H        0.47730000      -0.44860000       0.86930000
H       -1.81660000      -0.11490000      -0.70450000
H        1.68680000      -0.07250000      -1.29480000
H        1.23850000      -2.41330000      -2.17630000
H        1.41820000      -2.35820000      -0.41130000
H       -0.19710000      -2.48530000      -1.13180000
H       -1.24710000       0.64030000      -4.25140000
