19
Properties=species:S:1:pos:R:3 gdb_50557=T pbc="F F F"
O       -0.05560000      -0.03110000      -0.10910000
C        0.03020000       1.16090000       0.03000000
C        1.31110000       1.95880000       0.00110000
C        1.32830000       2.99430000      -1.15280000
C        2.38690000       4.01200000      -0.70060000
C        2.15250000       4.12550000       0.80080000
C        2.90300000       5.02900000       1.67640000
O        1.56420000       5.34200000       1.27970000
C        1.49580000       2.82280000       1.27680000
H       -0.88000000       1.78920000       0.19160000
H        2.14140000       1.25630000      -0.11670000
H        1.54240000       2.53410000      -2.12000000
H        0.34830000       3.48340000      -1.22600000
H        3.39120000       3.61450000      -0.89310000
H        2.30720000       4.98570000      -1.18910000
H        3.03320000       4.77860000       2.72910000
H        3.67790000       5.67140000       1.25790000
H        0.52860000       3.07500000       1.72710000
H        2.08270000       2.30090000       2.03650000
