17
Properties=species:S:1:pos:R:3 gdb_67267=T pbc="F F F"
O       -0.03620000       1.38140000      -0.05470000
C        0.00380000       0.00120000      -0.07160000
C        0.44470000      -0.84620000       1.20490000
C       -1.05300000      -1.00850000       1.57410000
C       -1.28810000      -0.86430000       0.05830000
C       -0.40530000      -1.94350000      -0.63910000
C        0.81280000      -2.06950000       0.35030000
O        1.74520000      -1.58220000      -0.65700000
C        0.60070000      -0.90650000      -1.20750000
H        0.86020000       1.71030000       0.07940000
H        1.19110000      -0.48590000       1.91310000
H       -1.36120000      -1.93520000       2.06970000
H       -1.43500000      -0.14830000       2.12960000
H       -2.24340000      -0.59940000      -0.39090000
H       -0.78290000      -2.81000000      -1.17520000
H        1.13290000      -2.99430000       0.82970000
H        0.70500000      -0.55370000      -2.23310000
