17
Properties=species:S:1:pos:R:3 gdb_24285=T pbc="F F F"
C       -0.04220000       1.53740000      -0.00480000
C        1.44630000       1.92190000      -0.03470000
N        2.20020000       1.51240000       1.16750000
C        2.29700000       0.69080000      -0.07740000
C        1.35370000      -0.44870000      -0.06130000
C        1.32040000      -1.81940000      -0.05980000
N       -0.00730000      -2.17990000       0.02260000
C       -0.81480000      -1.06100000       0.07730000
C        0.01390000       0.02920000       0.01910000
H       -0.53910000       1.96780000       0.87180000
H       -0.55460000       1.92550000      -0.89410000
H        1.74300000       2.83400000      -0.54290000
H        3.03350000       2.09480000       1.23600000
H        3.24240000       0.65890000      -0.60810000
H        2.09530000      -2.56770000      -0.10220000
H       -0.34300000      -3.12680000       0.02360000
H       -1.88680000      -1.16000000       0.13840000
