17
Properties=species:S:1:pos:R:3 gdb_27928=T pbc="F F F"
C       -0.03030000       1.51050000       0.08720000
C        0.01270000       0.02580000      -0.04000000
C       -0.00330000      -0.79760000      -1.12390000
C        0.04190000      -2.16100000      -0.66100000
C       -0.00550000      -3.35490000      -1.46760000
O       -0.05930000      -3.39090000      -2.68220000
C        0.09920000      -2.10580000       0.73170000
N        0.24480000      -3.09860000       1.69650000
N        0.07550000      -0.79340000       1.09380000
H        0.85690000       1.91070000       0.59480000
H       -0.07410000       1.96280000      -0.90580000
H       -0.90900000       1.85340000       0.64840000
H       -0.06070000      -0.49950000      -2.15870000
H        0.00340000      -4.31080000      -0.88520000
H        0.22280000      -4.02780000       1.29900000
H       -0.42480000      -3.03640000       2.45480000
H        0.20180000      -0.46420000       2.03650000
