17
Properties=species:S:1:pos:R:3 gdb_98867=T pbc="F F F"
C       -0.27380000       1.36210000       0.83090000
N       -0.09350000      -0.07480000       0.85240000
C        0.95850000      -0.69180000       0.26740000
O        1.85230000      -0.13010000      -0.34490000
C        0.93700000      -2.22520000       0.39010000
C        2.35130000      -2.81970000       0.59570000
O        2.25140000      -3.50110000       1.87630000
C        0.97550000      -3.34500000       2.27320000
N        0.15670000      -2.69560000       1.55130000
H        0.52920000       1.78630000       0.22680000
H       -1.23840000       1.63300000       0.38790000
H       -0.22250000       1.78670000       1.84000000
H       -0.71410000      -0.66280000       1.38960000
H        0.47500000      -2.59660000      -0.53190000
H        2.62970000      -3.56080000      -0.15600000
H        3.12190000      -2.04990000       0.65480000
H        0.73910000      -3.80780000       3.22520000
