14
Properties=species:S:1:pos:R:3 gdb_77791=T pbc="F F F"
O       -0.20460000       1.41960000       0.07140000
C       -0.09130000       0.03880000       0.05740000
C       -0.43730000      -0.82280000       1.25770000
C       -1.58710000      -0.16770000       1.97380000
N       -1.71500000       0.23550000       3.15810000
N       -2.42550000      -0.19750000       0.82020000
C       -1.35540000      -0.78120000       0.00720000
C       -1.62020000      -1.78950000      -0.96960000
N       -1.81650000      -2.59400000      -1.77710000
H        0.32670000       1.76590000       0.79730000
H        0.72300000      -0.35960000      -0.54860000
H        0.19560000      -1.62330000       1.61380000
H       -2.62900000       0.66430000       3.31560000
H       -2.84350000       0.66960000       0.49530000
