17
Properties=species:S:1:pos:R:3 gdb_53066=T pbc="F F F"
C       -0.07280000       1.44730000       0.05970000
C       -0.00390000      -0.00390000       0.00670000
C        0.07090000      -1.20880000      -0.03720000
C        0.09280000      -2.62050000      -0.08980000
C        1.16760000      -3.41300000      -0.27100000
C        0.78430000      -4.84610000      -0.16490000
O        0.23600000      -5.19810000       1.13170000
C       -0.66990000      -4.88280000       0.07510000
C       -1.18000000      -3.44950000       0.09440000
H        0.55390000       1.84580000       0.86570000
H        0.27340000       1.89490000      -0.87890000
H       -1.09810000       1.79160000       0.23370000
H        2.17920000      -3.06440000      -0.43090000
H        1.34250000      -5.63710000      -0.65550000
H       -1.31020000      -5.69670000      -0.25440000
H       -1.68650000      -3.20600000       1.03450000
H       -1.89310000      -3.26340000      -0.71740000
