20
Properties=species:S:1:pos:R:3 gdb_35273=T pbc="F F F"
C       -0.13820000      -1.19030000       0.17400000
C       -0.01650000       0.00560000       0.20180000
C        0.09870000       1.43840000       0.19800000
N        0.94350000       2.06690000       1.24560000
C        1.37080000       2.14950000      -0.15380000
C        2.63970000       1.41650000      -0.52800000
C        3.88540000       2.24040000      -0.26850000
C        4.45620000       2.32870000       1.12450000
C        5.19300000       1.56250000       0.05310000
H       -0.24030000      -2.24710000       0.16080000
H       -0.82040000       1.95600000      -0.06950000
H        0.51190000       2.93680000       1.54690000
H        1.23010000       3.10580000      -0.65860000
H        2.68250000       0.48390000       0.04370000
H        2.58940000       1.13580000      -1.58870000
H        3.95830000       3.14450000      -0.86940000
H        4.87060000       3.27450000       1.45610000
H        3.95380000       1.76530000       1.90280000
H        5.19840000       0.47910000       0.11550000
H        6.10680000       1.98650000      -0.34870000
