13
Properties=species:S:1:pos:R:3 gdb_25431=T pbc="F F F"
O       -0.04930000      -0.00730000       0.00020000
C       -0.00160000       1.20280000       0.00850000
C        1.24480000       1.97430000       0.00000000
C        2.51090000       1.46470000      -0.01810000
O        3.42460000       2.45580000      -0.02100000
C        2.74910000       3.63570000      -0.00460000
C        1.40190000       3.41760000       0.00870000
C        0.37640000       4.38990000       0.02730000
C       -0.50990000       5.20450000       0.04330000
H       -0.92410000       1.81930000       0.02350000
H        2.88750000       0.45580000      -0.02980000
H        3.34920000       4.52950000      -0.00470000
H       -1.28760000       5.92760000       0.05740000
