18
Properties=species:S:1:pos:R:3 gdb_65538=T pbc="F F F"
C       -0.07140000       1.53770000      -0.03250000
C        0.05160000       0.01620000       0.05710000
O        0.89790000      -0.49950000      -1.00020000
C        1.89280000      -1.24470000      -0.26080000
C        1.06370000      -2.01390000       0.79300000
C        0.80820000      -0.55370000       1.28840000
C        2.28740000      -0.26990000       0.87090000
C       -1.29750000      -0.57810000      -0.06720000
N       -2.36150000      -1.02160000      -0.14820000
H        0.90040000       2.01210000       0.11250000
H       -0.45080000       1.81910000      -1.01780000
H       -0.76720000       1.90970000       0.72510000
H        2.58920000      -1.70140000      -0.96070000
H        0.21430000      -2.60200000       0.44180000
H        1.67650000      -2.58700000       1.48960000
H        0.40070000      -0.31530000       2.26910000
H        2.99540000      -0.69720000       1.58210000
H        2.58540000       0.74100000       0.59020000
