17
Properties=species:S:1:pos:R:3 gdb_90391=T pbc="F F F"
C       -0.28500000       1.50860000      -0.10460000
C        0.02300000       0.03340000       0.01580000
O        1.13210000      -0.43360000      -0.82140000
C        1.68150000      -1.15590000       0.26950000
C        2.17510000      -0.22250000       1.36750000
C        2.78270000       1.05710000       1.14890000
C        3.33610000       2.11480000       0.99710000
C        0.69200000      -0.59360000       1.24720000
O        0.00880000      -1.22240000       2.26400000
H        0.57930000       2.12210000       0.15100000
H       -0.59280000       1.74340000      -1.12860000
H       -1.11700000       1.76560000       0.56080000
H       -0.86240000      -0.57020000      -0.22510000
H        2.08480000      -2.14610000       0.09380000
H        2.61170000      -0.79830000       2.18320000
H        3.81830000       3.04890000       0.84760000
H       -0.08880000      -0.60410000       2.99710000
