16
Properties=species:S:1:pos:R:3 gdb_16756=T pbc="F F F"
C       -0.00440000       1.36920000      -0.01190000
O       -0.03820000      -0.05880000      -0.07660000
C       -1.25930000      -0.59600000      -0.04570000
N       -2.37440000       0.03960000      -0.00210000
C       -3.40800000      -0.96420000       0.03020000
C       -3.55600000      -1.88060000      -1.16840000
C       -2.71020000      -2.32880000      -0.00590000
N       -1.30950000      -1.98060000      -0.10430000
H        1.05020000       1.64300000      -0.05850000
H       -0.55400000       1.80350000      -0.85110000
H       -0.45270000       1.72480000       0.92000000
H       -4.28090000      -0.73770000       0.63260000
H       -4.51560000      -2.37250000      -1.28810000
H       -3.05660000      -1.60690000      -2.09230000
H       -2.96550000      -3.19580000       0.59080000
H       -0.61670000      -2.51050000       0.40210000
