20
Properties=species:S:1:pos:R:3 gdb_113272=T pbc="F F F"
C       -0.01960000       1.06730000       0.45520000
O       -0.15600000       0.00360000      -0.47190000
C       -1.35260000      -0.68570000      -0.33020000
C       -1.43370000      -2.04440000      -0.96310000
C       -1.42870000      -1.90730000       0.54990000
C       -0.23730000      -2.35890000       1.35800000
O       -2.67150000      -2.04250000       1.21640000
C       -3.22630000      -3.27450000       1.21960000
N       -4.27800000      -3.48780000       1.88380000
H        0.93550000       1.55330000       0.24480000
H       -0.82880000       1.80300000       0.34020000
H       -0.02170000       0.70750000       1.49290000
H       -2.25180000      -0.06860000      -0.35520000
H       -2.35780000      -2.31370000      -1.46140000
H       -0.52930000      -2.42580000      -1.42470000
H        0.68760000      -2.04380000       0.87010000
H       -0.27300000      -1.91930000       2.35960000
H       -0.21720000      -3.44870000       1.46780000
H       -2.68290000      -3.99890000       0.59960000
H       -4.57090000      -4.45540000       1.76380000
