19
Properties=species:S:1:pos:R:3 gdb_39374=T pbc="F F F"
C       -0.00540000       1.53070000       0.02910000
C        1.32450000       0.83220000      -0.04080000
O        2.33840000       0.79640000       0.92750000
C        2.24030000       1.44130000       2.20150000
C        1.94580000       0.58280000       3.44150000
C        0.78080000      -0.03160000       3.69940000
C       -0.20610000       0.01580000       2.60290000
C        0.11080000      -0.59780000       1.45650000
C        0.02760000       0.01230000       0.11710000
H       -0.29240000       2.09320000       0.90630000
H       -0.35600000       1.97300000      -0.89760000
H        1.79700000       0.79680000      -1.01780000
H        3.22090000       1.90700000       2.34880000
H        1.50730000       2.25570000       2.15070000
H        2.72100000       0.60230000       4.20610000
H        0.59020000      -0.48770000       4.66860000
H       -0.95510000       0.80680000       2.62550000
H        0.83820000      -1.40730000       1.51550000
H       -0.28720000      -0.57340000      -0.74140000
