14
Properties=species:S:1:pos:R:3 gdb_125777=T pbc="F F F"
C       -0.03640000       1.48680000       0.03050000
C       -0.00970000      -0.00950000       0.00880000
N       -0.04230000      -0.56210000      -1.14880000
O       -0.01620000      -1.98980000      -1.15400000
C        0.03950000      -2.64440000       0.02070000
O        0.05630000      -3.96050000      -0.16710000
N        0.07370000      -2.15210000       1.19570000
C        0.05140000      -0.76290000       1.28580000
N        0.07950000      -0.10220000       2.37760000
H        0.85240000       1.86180000       0.54540000
H       -0.08100000       1.88260000      -0.98470000
H       -0.89820000       1.82970000       0.60970000
H        0.02430000      -4.13640000      -1.11760000
H        0.12060000      -0.75670000       3.16240000
