19
Properties=species:S:1:pos:R:3 gdb_83343=T pbc="F F F"
C       -0.10900000       1.62290000       0.00380000
C        0.01510000       0.11070000       0.03280000
C        1.13520000      -0.60860000      -0.75930000
O        2.35330000      -0.00900000      -0.27410000
C        2.13510000       0.00940000       1.15730000
C        0.75200000      -0.63740000       1.21350000
O        0.22500000      -0.81770000       2.47970000
C        0.97810000      -1.81450000       0.21310000
O       -0.19290000      -2.59520000       0.12700000
H        0.86970000       2.10780000      -0.03500000
H       -0.67480000       1.95140000      -0.87440000
H       -0.63830000       1.98570000       0.89190000
H       -0.94280000      -0.38040000      -0.14750000
H        1.16640000      -0.69380000      -1.84430000
H        2.90220000      -0.58090000       1.67030000
H        2.15520000       1.03480000       1.54120000
H       -0.52540000      -1.41750000       2.39170000
H        1.87750000      -2.42690000       0.35420000
H       -0.09100000      -3.22630000      -0.59180000
