16
Properties=species:S:1:pos:R:3 gdb_53913=T pbc="F F F"
N        0.66990000      -0.06880000      -0.96880000
C       -0.09790000       0.14230000       0.12990000
O        0.06960000       1.03980000       0.92320000
C       -1.27190000      -0.87390000       0.31010000
C       -2.47780000      -0.32060000      -0.30610000
N       -3.42400000       0.08030000      -0.83590000
C       -0.95050000      -2.26260000      -0.23260000
C       -1.97660000      -3.22300000      -0.69120000
N       -1.08650000      -2.56370000      -1.67080000
H        1.44660000       0.55330000      -1.12470000
H        0.55320000      -0.86970000      -1.56830000
H       -1.43070000      -0.92120000       1.39250000
H       -0.03920000      -2.66670000       0.20220000
H       -1.80680000      -4.28660000      -0.55640000
H       -3.01730000      -2.91400000      -0.67050000
H       -1.61960000      -1.82280000      -2.12600000
