22
Properties=species:S:1:pos:R:3 gdb_120675=T pbc="F F F"
O        0.48700000       1.04200000      -0.55280000
C        0.15650000      -0.25280000      -0.09800000
C       -1.33220000      -0.35430000       0.23230000
N       -2.09150000       0.03790000      -0.95420000
C       -2.60870000      -1.02960000      -1.81910000
C       -3.51810000      -0.20410000      -0.98350000
C       -4.43780000      -0.71590000       0.13840000
C       -5.61250000       0.01570000      -0.57750000
C       -4.58100000       0.79880000      -1.44340000
H       -0.23550000       1.28680000      -1.14750000
H        0.41390000      -1.02150000      -0.84720000
H        0.75570000      -0.45300000       0.79710000
H       -1.58010000      -1.36750000       0.58920000
H       -1.56950000       0.35520000       1.03380000
H       -2.52540000      -0.85550000      -2.88900000
H       -2.43740000      -2.06020000      -1.50890000
H       -4.52450000      -1.79680000       0.27310000
H       -4.19770000      -0.26230000       1.10550000
H       -6.21860000      -0.66880000      -1.17530000
H       -6.27630000       0.60890000       0.05380000
H       -4.38100000       1.80250000      -1.05610000
H       -4.77320000       0.86870000      -2.51680000
