15
Properties=species:S:1:pos:R:3 gdb_24494=T pbc="F F F"
N       -0.02130000       1.35910000       0.00990000
C        1.26320000       1.85400000       0.00020000
C        2.16100000       0.81970000      -0.01420000
C        1.39760000      -0.39220000      -0.01340000
C        0.02930000      -0.01770000       0.00190000
C       -0.97520000      -0.98450000       0.00640000
N       -0.68610000      -2.27950000      -0.00350000
C        0.61400000      -2.64500000      -0.01810000
C        1.68280000      -1.76480000      -0.02370000
H       -0.85790000       1.91550000       0.02110000
H        1.43400000       2.91990000       0.00430000
H        3.23560000       0.91300000      -0.02410000
H       -2.02880000      -0.70910000       0.01810000
H        0.79520000      -3.71660000      -0.02570000
H        2.70280000      -2.13350000      -0.03560000
