17
Properties=species:S:1:pos:R:3 gdb_11730=T pbc="F F F"
C       -0.02560000       1.50370000       0.10580000
C       -0.03930000      -0.01460000      -0.12150000
C       -1.40880000      -0.59710000       0.00470000
C       -2.14850000      -1.03850000       1.21690000
C       -1.96630000      -2.00630000       0.03680000
C       -2.84110000      -1.53660000      -1.07420000
N       -3.65250000      -2.07820000      -1.86060000
O       -2.39420000      -0.21570000      -1.01070000
H        0.98500000       1.90370000      -0.01440000
H       -0.67910000       2.00670000      -0.61240000
H       -0.37430000       1.75470000       1.11240000
H        0.35450000      -0.24820000      -1.11750000
H        0.61260000      -0.51370000       0.60490000
H       -1.53930000      -1.28570000       2.08140000
H       -3.12880000      -0.63000000       1.44040000
H       -1.48940000      -2.97090000       0.12880000
H       -4.02580000      -1.40030000      -2.52700000
