18
Properties=species:S:1:pos:R:3 gdb_71949=T pbc="F F F"
O       -0.01720000       1.40490000       0.07480000
C        0.03650000       0.00290000       0.00120000
C        0.20190000      -0.62650000      -1.41570000
N       -1.12500000      -1.32700000      -1.32980000
C       -1.01120000      -2.67570000      -0.68000000
C       -1.00680000      -2.05350000       0.73860000
O        0.30040000      -1.96410000       1.30670000
C        0.83400000      -0.65660000       1.13330000
C       -1.32830000      -0.71040000       0.04670000
H        0.86030000       1.75430000      -0.11560000
H        0.18440000       0.13350000      -2.20260000
H        1.06200000      -1.28820000      -1.56640000
H       -1.90900000      -3.26420000      -0.89250000
H       -0.12260000      -3.25620000      -0.94490000
H       -1.69850000      -2.46590000       1.47820000
H        1.90480000      -0.74900000       0.91400000
H        0.71320000      -0.05380000       2.04590000
H       -2.23720000      -0.14800000       0.25830000
