21
Properties=species:S:1:pos:R:3 gdb_37963=T pbc="F F F"
C       -0.00010000       1.55490000      -0.07340000
C        1.53420000       1.55710000      -0.09430000
C        2.10370000       0.93540000       1.15380000
C        1.53790000       1.08830000       2.56580000
C        0.61470000      -0.03930000       3.03870000
O       -0.66100000      -0.02490000       2.42420000
C       -0.74210000      -0.68140000       1.17410000
C        0.02510000      -0.00690000       0.04100000
C        1.56380000       0.03250000       0.07270000
H       -0.46920000       2.08380000       0.76100000
H       -0.44820000       1.90140000      -1.00650000
H        2.14150000       2.17790000      -0.74240000
H        3.19140000       0.94790000       1.12810000
H        2.37520000       1.14390000       3.27270000
H        0.99330000       2.03490000       2.66600000
H        1.10150000      -1.01660000       2.88820000
H        0.42710000       0.07870000       4.11230000
H       -0.40410000      -1.72850000       1.27100000
H       -1.81170000      -0.70150000       0.93390000
H       -0.30960000      -0.45580000      -0.90070000
H        2.20040000      -0.69380000      -0.42060000
