17
Properties=species:S:1:pos:R:3 gdb_2375=T pbc="F F F"
C       -0.19920000       1.55320000       0.01490000
C       -0.02560000       0.05220000       0.06440000
C        1.27450000      -0.60360000      -0.25400000
C        0.76900000      -0.65330000       1.17850000
C        1.48460000       0.14060000       2.21860000
C        1.30130000      -0.32900000       3.65110000
O        2.17280000       1.10550000       1.94960000
H        0.70000000       2.06600000       0.35970000
H       -0.40800000       1.87180000      -1.01230000
H       -1.03930000       1.87540000       0.63980000
H       -0.91160000      -0.50820000      -0.22430000
H        1.28430000      -1.53150000      -0.81480000
H        2.13090000       0.04500000      -0.40710000
H        0.34500000      -1.58950000       1.52630000
H        1.67450000      -1.35380000       3.76260000
H        1.83770000       0.33250000       4.33220000
H        0.23700000      -0.34980000       3.91210000
