18
Properties=species:S:1:pos:R:3 gdb_16943=T pbc="F F F"
C       -0.03250000       1.49910000       0.04210000
C       -0.04740000       0.01030000      -0.03200000
C       -0.06890000      -0.80140000      -1.09130000
C        0.02090000      -2.25030000      -0.57200000
C       -0.83960000      -2.08040000       0.71650000
C        0.04990000      -0.90370000       1.21600000
C        1.41840000      -1.61360000       1.16280000
C        1.40110000      -2.41650000       0.09910000
H        0.89370000       1.86180000       0.50860000
H       -0.11020000       1.95350000      -0.94990000
H       -0.85810000       1.88040000       0.65690000
H       -0.07780000      -0.52380000      -2.13740000
H       -0.26560000      -3.03060000      -1.27670000
H       -1.87210000      -1.78560000       0.50860000
H       -0.81180000      -2.95240000       1.37620000
H       -0.20810000      -0.43260000       2.16530000
H        2.23200000      -1.42770000       1.85100000
H        2.19890000      -3.03770000      -0.28570000
