19
Properties=species:S:1:pos:R:3 gdb_68571=T pbc="F F F"
O       -0.07510000       1.42600000       0.04990000
C        0.00250000       0.01350000      -0.02150000
C       -1.40510000      -0.59730000      -0.11900000
C       -1.03420000      -2.01630000      -0.60900000
C        0.04440000      -1.67680000      -1.64300000
C        0.63660000      -0.53480000      -1.29790000
C       -0.36390000      -2.74270000       0.55220000
C        0.43760000      -2.07040000       1.38010000
C        0.70660000      -0.58950000       1.22230000
H        0.81450000       1.76940000       0.18580000
H       -1.94500000      -0.59500000       0.83140000
H       -1.98210000      -0.05190000      -0.87040000
H       -1.87580000      -2.58520000      -1.00980000
H        0.32520000      -2.33640000      -2.45570000
H        1.49330000      -0.07050000      -1.77420000
H       -0.52690000      -3.80950000       0.67290000
H        0.94000000      -2.57680000       2.20040000
H        1.79240000      -0.41210000       1.16650000
H        0.35420000      -0.04450000       2.10920000
