20
Properties=species:S:1:pos:R:3 gdb_86056=T pbc="F F F"
C       -0.15320000       1.53690000       0.02320000
C        0.05020000       0.02140000      -0.03210000
C        0.88220000      -0.49440000      -1.22420000
C        1.96930000      -1.32880000      -0.58870000
N        2.84460000      -2.01430000      -1.37570000
C        1.92380000      -1.32220000       0.76970000
C        2.84800000      -2.01060000       1.72550000
C        0.80800000      -0.49480000       1.21010000
O        0.50010000      -0.22670000       2.35710000
H        0.80670000       2.06270000      -0.03450000
H       -0.78330000       1.89020000      -0.79930000
H       -0.62630000       1.80770000       0.97060000
H       -0.93350000      -0.46350000      -0.02570000
H        0.29590000      -1.09080000      -1.93360000
H        1.32310000       0.33070000      -1.80040000
H        2.94370000      -1.74230000      -2.33990000
H        3.67140000      -2.40420000      -0.95190000
H        3.90140000      -1.75690000       1.54640000
H        2.59480000      -1.70140000       2.74320000
H        2.76260000      -3.10360000       1.67500000
