16
Properties=species:S:1:pos:R:3 gdb_25949=T pbc="F F F"
C       -0.12610000       1.39420000      -0.10650000
C        0.08890000      -0.09450000       0.00390000
N        1.25310000      -0.59400000       0.05530000
N       -1.12730000      -0.80770000       0.03940000
C       -1.26860000      -2.16280000       0.13520000
N       -0.35700000      -3.08430000       0.21400000
C       -1.09160000      -4.26790000       0.28940000
C       -2.40910000      -3.98830000       0.25170000
O       -2.54370000      -2.61520000       0.15070000
H        0.84510000       1.88580000      -0.12930000
H       -0.67800000       1.64750000      -1.01930000
H       -0.70110000       1.77500000       0.74570000
H        1.22030000      -1.61260000       0.12850000
H       -1.98910000      -0.28810000      -0.00960000
H       -0.60420000      -5.22650000       0.36510000
H       -3.32190000      -4.55530000       0.28040000
