15
Properties=species:S:1:pos:R:3 gdb_44837=T pbc="F F F"
O        0.02050000       0.00160000       0.03110000
C       -0.02000000       1.19810000       0.00550000
C       -1.25360000       2.12070000       0.00370000
C       -0.57050000       3.50000000       0.08380000
C        0.05620000       3.74650000       1.47020000
C        1.24230000       2.76490000       1.41870000
O        2.02900000       2.49480000       2.28000000
C        1.16460000       2.19370000      -0.01750000
O        0.60320000       3.29570000      -0.73800000
H       -1.79810000       2.00750000      -0.93820000
H       -1.92960000       1.87420000       0.82600000
H       -1.14820000       4.32940000      -0.31970000
H        0.42860000       4.77150000       1.55500000
H       -0.58750000       3.54010000       2.32870000
H        2.09440000       1.83090000      -0.44580000
