19
Properties=species:S:1:pos:R:3 gdb_127246=T pbc="F F F"
C       -0.08810000       1.44310000       0.13680000
N        0.00460000       0.00650000      -0.00550000
C        0.05100000      -0.71670000      -1.15240000
C        0.04240000      -2.05410000      -0.80020000
C        0.12210000      -3.25000000      -1.70030000
C        1.53650000      -3.82760000      -1.79120000
O        1.48940000      -4.95280000      -2.65420000
C       -0.01610000      -2.01950000       0.61240000
N       -0.04280000      -0.77720000       1.08880000
H        0.32410000       1.92160000      -0.75390000
H       -1.12720000       1.76370000       0.26770000
H        0.48730000       1.74820000       1.01210000
H        0.08270000      -0.23680000      -2.11870000
H       -0.54580000      -4.04340000      -1.34610000
H       -0.20850000      -2.99280000      -2.71230000
H        2.22330000      -3.05450000      -2.17110000
H        1.88480000      -4.10510000      -0.78380000
H        2.37230000      -5.32960000      -2.70670000
H       -0.03880000      -2.85480000       1.29850000
