19
Properties=species:S:1:pos:R:3 gdb_55871=T pbc="F F F"
C       -0.06680000       1.47680000       0.21450000
C        0.07930000      -0.03350000       0.15100000
O        1.13170000      -0.58580000       0.37480000
C       -1.18000000      -0.81020000      -0.22450000
C       -1.02560000      -2.30310000      -0.07700000
C       -1.38960000      -2.99130000       1.20330000
C       -2.25000000      -3.21160000      -0.03520000
C       -3.57590000      -2.66980000      -0.10030000
C       -4.68980000      -2.21820000      -0.16430000
H        0.91090000       1.94010000       0.35180000
H       -0.54180000       1.86350000      -0.69360000
H       -0.71800000       1.74990000       1.05320000
H       -2.02610000      -0.43850000       0.36540000
H       -1.42600000      -0.54450000      -1.26370000
H       -0.17210000      -2.71260000      -0.60630000
H       -0.78040000      -3.82010000       1.54480000
H       -1.82580000      -2.39310000       1.99570000
H       -2.13360000      -4.17290000      -0.52720000
H       -5.67570000      -1.82800000      -0.21660000
