16
Properties=species:S:1:pos:R:3 gdb_7415=T pbc="F F F"
C       -1.07850000       1.19280000       0.35140000
N       -0.22080000       0.04930000       0.02480000
C        0.52440000      -0.57190000       1.01450000
C        0.39440000      -0.00360000       2.41560000
O        1.25990000      -1.52920000       0.81430000
C       -0.23260000      -0.34290000      -1.36690000
N        0.55020000      -1.39200000      -1.68350000
O       -0.92050000       0.26470000      -2.16430000
H       -1.55570000       1.50380000      -0.57460000
H       -1.84810000       0.91650000       1.07720000
H       -0.49370000       2.02550000       0.75150000
H       -0.63710000      -0.05340000       2.77680000
H        1.03520000      -0.59470000       3.06840000
H        0.70340000       1.04510000       2.45570000
H        1.09700000      -1.85000000      -0.96460000
H        0.54930000      -1.67270000      -2.64820000
