14
Properties=species:S:1:pos:R:3 gdb_125797=T pbc="F F F"
C       -0.01770000       1.51230000      -0.06020000
C       -0.00900000       0.02310000       0.05310000
N       -0.04190000      -0.72300000      -1.03280000
O       -0.02490000      -2.07850000      -0.65120000
C        0.01920000      -2.10340000       0.69330000
C        0.03150000      -0.82310000       1.19880000
N        0.07630000      -0.95480000       2.55220000
N        0.09260000      -2.25850000       2.91810000
C        0.05820000      -2.97990000       1.79570000
H        0.88040000       1.94520000       0.39300000
H       -0.05430000       1.80160000      -1.11160000
H       -0.88610000       1.93930000       0.45280000
H        0.09750000      -0.25360000       3.27100000
H        0.06340000      -4.05650000       1.84410000
