21
Properties=species:S:1:pos:R:3 gdb_41459=T pbc="F F F"
C        0.04910000       1.56640000       0.34490000
C        1.49910000       1.60440000      -0.22220000
C        1.35690000       0.14180000      -0.75320000
C        1.88550000      -0.28060000      -2.13050000
C        3.04650000      -1.27580000      -1.78990000
C        2.66630000      -1.80040000      -0.40660000
C        1.79380000      -0.96760000       0.15180000
C        0.58570000      -0.88280000       1.06330000
C       -0.06500000       0.06890000      -0.00910000
H       -0.07620000       1.81890000       1.40210000
H       -0.63680000       2.18800000      -0.23710000
H        1.63780000       2.33920000      -1.01980000
H        2.29560000       1.75120000       0.51350000
H        1.10960000      -0.81390000      -2.69170000
H        2.21380000       0.56180000      -2.74750000
H        3.11930000      -2.08490000      -2.52500000
H        4.02400000      -0.77290000      -1.79060000
H        3.00830000      -2.75430000      -0.02110000
H        0.07710000      -1.83280000       1.24840000
H        0.74390000      -0.38810000       2.02760000
H       -0.97790000      -0.29990000      -0.47920000
