14
Properties=species:S:1:pos:R:3 gdb_130929=T pbc="F F F"
O       -0.29770000       0.05680000       0.14350000
C       -0.03620000       1.21930000      -0.00170000
C        1.37360000       1.74370000      -0.27870000
C        1.37710000       2.83310000      -1.31470000
N        1.97010000       2.58570000      -2.49280000
C        1.92510000       3.58460000      -3.36200000
C        1.28250000       4.78050000      -3.04190000
N        0.69760000       4.95760000      -1.86050000
N        0.75110000       3.96830000      -0.97660000
H       -0.80740000       2.01520000       0.07350000
H        1.73200000       2.16250000       0.67100000
H        2.01820000       0.91740000      -0.57770000
H        2.40070000       3.43360000      -4.32830000
H        1.22650000       5.61210000      -3.73650000
