15
Properties=species:S:1:pos:R:3 gdb_27693=T pbc="F F F"
C       -0.04700000       1.49990000       0.08940000
C       -0.00510000       0.01310000      -0.03780000
C       -0.03840000      -0.78500000      -1.16960000
C        0.02790000      -2.12860000      -0.74270000
O        0.01910000      -3.19300000      -1.57170000
C        0.10100000      -2.13270000       0.64820000
N        0.07830000      -0.79970000       1.05090000
C        0.18240000      -3.22650000       1.51980000
N        0.24890000      -4.16240000       2.20650000
H        0.85080000       1.89100000       0.58240000
H       -0.11130000       1.95750000      -0.89940000
H       -0.91440000       1.83380000       0.67070000
H       -0.10330000      -0.44340000      -2.19010000
H        0.07280000      -4.00360000      -1.05100000
H        0.12010000      -0.49690000       2.00860000
