16
Properties=species:S:1:pos:R:3 gdb_32163=T pbc="F F F"
N        0.04660000       1.37910000       0.13180000
C       -0.00640000       0.01580000       0.05160000
C       -1.22790000      -0.68150000       0.04340000
C       -1.15380000      -2.05860000       0.00060000
C       -2.38350000      -2.92990000      -0.01450000
O       -3.54840000      -2.12710000      -0.00680000
N        0.01730000      -2.72360000      -0.02930000
C        1.10300000      -1.95920000      -0.01740000
N        1.16910000      -0.62900000       0.01720000
H        0.94140000       1.79570000      -0.07100000
H       -0.76880000       1.91300000      -0.11660000
H       -2.18390000      -0.17580000       0.07110000
H       -2.33160000      -3.57430000      -0.90590000
H       -2.33640000      -3.59720000       0.86020000
H       -4.31310000      -2.70830000       0.00770000
H        2.05910000      -2.47890000      -0.04300000
