24
Properties=species:S:1:pos:R:3 gdb_82303=T pbc="F F F"
C       -0.90990000       0.97890000      -0.02020000
C        0.05830000      -0.19650000      -0.18450000
C        1.03830000      -0.04000000      -1.33890000
C        2.22610000       0.83870000      -1.18320000
N        2.35080000      -0.61560000      -1.00150000
C        2.27590000      -1.05500000       0.40330000
C        0.94080000      -0.56920000       1.06190000
C        1.17770000       0.59440000       2.04490000
C        0.28550000      -1.71570000       1.85150000
H       -0.38440000       1.91840000       0.17360000
H       -1.50140000       1.11470000      -0.93160000
H       -1.61300000       0.80830000       0.80210000
H       -0.54790000      -1.08190000      -0.41870000
H        0.66430000      -0.24640000      -2.33950000
H        2.72730000       1.22330000      -2.06740000
H        2.29650000       1.48770000      -0.31640000
H        2.31030000      -2.15030000       0.39410000
H        3.15890000      -0.70910000       0.95230000
H        1.62680000       1.47510000       1.58010000
H        0.24310000       0.91340000       2.51770000
H        1.85300000       0.27050000       2.84450000
H        0.91290000      -2.02320000       2.69580000
H       -0.68590000      -1.41150000       2.25840000
H        0.12450000      -2.59370000       1.21730000
