19
Properties=species:S:1:pos:R:3 gdb_113482=T pbc="F F F"
O        0.06380000       1.26560000      -0.60400000
C        0.05050000       0.15610000       0.27870000
C       -1.32470000      -0.45340000       0.37360000
O       -1.74900000      -1.14370000      -0.82950000
C       -1.56010000      -1.89970000       0.35560000
C       -0.60490000      -3.11260000       0.38360000
C       -1.74440000      -3.93270000       1.01420000
C       -2.20890000      -3.28190000       2.28310000
C       -2.67870000      -2.71600000       0.96560000
H       -0.28330000       0.94780000      -1.44550000
H        0.77270000      -0.61430000      -0.03100000
H        0.36210000       0.53650000       1.25770000
H       -2.09430000       0.19450000       0.79590000
H       -0.36610000      -3.42120000      -0.63690000
H        0.32050000      -3.02980000       0.96310000
H       -1.97120000      -4.96430000       0.77840000
H       -2.96310000      -3.82540000       2.84310000
H       -1.51200000      -2.72280000       2.90390000
H       -3.72370000      -2.64720000       0.69090000
