18
Properties=species:S:1:pos:R:3 gdb_82105=T pbc="F F F"
O       -0.14550000       1.46680000       0.03340000
C       -0.11540000       0.05500000       0.04390000
C        0.33840000      -0.65100000       1.32300000
C       -0.52940000      -0.27030000       2.45170000
N       -1.02270000      -1.30610000       1.52560000
C       -1.50660000      -0.59730000       0.27730000
C       -2.72040000       0.27860000       0.39340000
C       -3.56370000       0.54530000      -0.77880000
O       -3.98350000      -0.37670000       0.22380000
H        0.76070000       1.79250000       0.01570000
H        0.37940000      -0.33790000      -0.85310000
H        1.25950000      -1.21200000       1.44320000
H       -0.28450000      -0.67620000       3.42780000
H       -0.98020000       0.71710000       2.46990000
H       -1.71590000      -1.36660000      -0.47000000
H       -2.71630000       1.02620000       1.18360000
H       -4.12550000       1.47640000      -0.83250000
H       -3.30390000       0.10510000      -1.74110000
