16
Properties=species:S:1:pos:R:3 gdb_34538=T pbc="F F F"
N        0.03800000      -1.15460000       0.08770000
C       -0.01450000       0.00250000       0.03980000
C       -0.02550000       1.42410000      -0.01060000
C       -1.17000000       2.12920000       0.04200000
C       -1.16430000       3.59780000       0.00180000
C       -0.28060000       4.35480000       1.01220000
C        0.16320000       4.21190000      -0.40560000
O        1.19700000       3.37410000      -0.81650000
C        1.31250000       2.13100000      -0.14230000
H       -2.12280000       1.61200000       0.08960000
H       -2.08440000       4.07910000      -0.30810000
H       -0.62710000       5.32920000       1.33770000
H        0.18880000       3.76210000       1.78820000
H        0.14320000       5.08740000      -1.04400000
H        1.77840000       2.26590000       0.84630000
H        1.99980000       1.53030000      -0.74330000
