19
Properties=species:S:1:pos:R:3 gdb_31487=T pbc="F F F"
C        0.50640000       1.29470000       0.20940000
C        0.13650000      -0.12730000      -0.04270000
C       -0.30470000      -0.73900000      -1.20170000
N       -0.54540000      -0.06950000      -2.42960000
C       -0.51160000      -2.11890000      -0.91030000
C       -0.19970000      -2.31760000       0.41870000
C       -0.25170000      -3.53080000       1.28420000
O        0.93870000      -3.70650000       2.05610000
N        0.19570000      -1.10600000       0.92730000
H        1.59170000       1.46810000       0.21350000
H        0.07560000       1.92180000      -0.57650000
H        0.11800000       1.65210000       1.17050000
H        0.30470000       0.30750000      -2.83440000
H       -0.95220000      -0.69850000      -3.11080000
H       -0.86520000      -2.87630000      -1.59550000
H       -1.05160000      -3.46270000       2.03260000
H       -0.47020000      -4.40800000       0.65830000
H        1.67450000      -3.72550000       1.43400000
H        0.55000000      -0.98480000       1.86090000
