16
Properties=species:S:1:pos:R:3 gdb_128305=T pbc="F F F"
C        0.12420000       1.36380000       0.14980000
N       -0.01750000      -0.02940000      -0.23180000
C       -1.25170000      -0.63940000      -0.09350000
N       -1.33400000      -1.96760000       0.03820000
N       -2.65780000      -2.21990000       0.08470000
C       -3.42190000      -1.09810000       0.00130000
C       -2.53180000      -0.03730000      -0.11510000
C       -4.83080000      -1.13860000       0.03730000
C       -6.03370000      -1.18910000       0.07030000
H        1.16650000       1.66250000       0.01670000
H       -0.48310000       1.99680000      -0.50580000
H       -0.17010000       1.57240000       1.19060000
H        0.73330000      -0.62940000       0.07840000
H       -2.98050000      -3.16630000       0.18860000
H       -2.78930000       1.00360000      -0.20660000
H       -7.09460000      -1.22590000       0.09820000
