15
Properties=species:S:1:pos:R:3 gdb_15551=T pbc="F F F"
C        0.04900000       1.55080000      -0.17100000
C       -0.02860000       0.03970000       0.04320000
N        0.59290000      -0.71870000      -1.05940000
C        1.84060000      -1.11270000      -0.62010000
N        2.08380000      -1.04540000       0.63320000
C        0.83840000      -0.51620000       1.23470000
C        1.10960000       0.46800000       2.28540000
N        1.28990000       1.25000000       3.11630000
H        1.08760000       1.88220000      -0.26520000
H       -0.49100000       1.83290000      -1.08100000
H       -0.40280000       2.08540000       0.66850000
H       -1.07070000      -0.26610000       0.16660000
H        0.50880000      -0.34530000      -1.99480000
H        2.55720000      -1.50310000      -1.33710000
H        0.30690000      -1.35340000       1.70690000
