17
Properties=species:S:1:pos:R:3 gdb_128480=T pbc="F F F"
C       -0.10280000       1.42130000      -0.00750000
O       -0.02090000      -0.00750000       0.02510000
C       -1.16910000      -0.68060000       0.02110000
C       -1.37070000      -2.02900000       0.00620000
C       -0.36510000      -3.13300000      -0.03280000
C       -2.79630000      -2.10700000       0.00390000
N       -3.54210000      -3.27090000      -0.08630000
N       -3.39000000      -0.93030000       0.02730000
O       -2.31650000       0.00330000       0.02740000
H        0.92880000       1.77290000      -0.00730000
H       -0.61680000       1.76280000      -0.91070000
H       -0.63050000       1.80250000       0.87140000
H       -0.36780000      -3.73480000       0.88540000
H       -0.55000000      -3.81610000      -0.86990000
H        0.64210000      -2.72520000      -0.14980000
H       -3.16730000      -4.04220000       0.44790000
H       -4.52270000      -3.12190000       0.11330000
