15
Properties=species:S:1:pos:R:3 gdb_45836=T pbc="F F F"
N       -0.26120000       1.35520000       0.33760000
C       -0.05970000       0.18100000      -0.06850000
C       -1.07280000      -0.92180000       0.06470000
C       -1.51550000      -1.39170000      -1.29660000
C       -0.65960000      -1.95770000      -2.14480000
N        0.70120000      -2.13630000      -1.87210000
C        1.57810000      -1.37320000      -1.13420000
O        2.72540000      -1.68920000      -0.96970000
O        1.13860000      -0.14950000      -0.68540000
H        0.54050000       1.95440000       0.13380000
H       -0.61890000      -1.75660000       0.61820000
H       -1.90410000      -0.53540000       0.65210000
H       -2.54170000      -1.23330000      -1.60280000
H       -0.96860000      -2.33900000      -3.11230000
H        1.17010000      -2.92490000      -2.29310000
