19
Properties=species:S:1:pos:R:3 gdb_102115=T pbc="F F F"
O        0.13870000       1.37720000       0.06740000
C        0.04040000      -0.03870000       0.09480000
C       -1.40510000      -0.52380000      -0.06260000
C       -2.02890000       0.02740000      -1.34180000
O       -3.15820000      -0.22080000      -1.69960000
C       -1.52660000      -2.03960000      -0.00350000
C       -1.79530000      -2.73190000       1.32220000
C       -2.87330000      -2.66090000       0.28080000
O       -3.95530000      -1.82450000       0.53950000
H       -0.27380000       1.72080000       0.86670000
H        0.64780000      -0.39150000      -0.74720000
H        0.47670000      -0.46570000       1.00830000
H       -2.01010000      -0.10770000       0.75540000
H       -1.38520000       0.69500000      -1.94960000
H       -0.88990000      -2.56810000      -0.70930000
H       -1.31530000      -3.68390000       1.51940000
H       -1.93070000      -2.09970000       2.19320000
H       -3.11390000      -3.57950000      -0.25480000
H       -4.07980000      -1.29230000      -0.26320000
