18
Properties=species:S:1:pos:R:3 gdb_90022=T pbc="F F F"
O        0.02360000       1.46560000      -0.08030000
C        0.02520000       0.06560000      -0.04650000
C        0.27960000      -0.55690000       1.36340000
C       -1.25830000      -0.66320000       1.52970000
C       -2.02710000      -1.59060000       2.48640000
O       -2.60580000      -0.41550000       3.15890000
C       -1.93180000       0.43120000       2.31940000
N       -1.89410000       1.68550000       2.24160000
C       -1.39140000      -0.59200000      -0.01330000
H       -0.56160000       1.80190000       0.62150000
H        0.69160000      -0.26290000      -0.84700000
H        0.74120000      -1.54680000       1.29750000
H        0.82390000       0.05980000       2.08170000
H       -2.81390000      -2.20540000       2.04270000
H       -1.42610000      -2.17630000       3.18620000
H       -2.47560000       2.15380000       2.93550000
H       -2.21550000      -0.00400000      -0.42260000
H       -1.39010000      -1.59150000      -0.45860000
