18
Properties=species:S:1:pos:R:3 gdb_52462=T pbc="F F F"
O        0.87310000       0.69810000       1.69550000
C        0.50140000       1.47950000       0.84610000
N        1.15850000       1.73490000      -0.31840000
C        2.43120000       1.11370000      -0.64320000
C        3.63610000       2.00180000      -0.30230000
C        4.95770000       1.31040000      -0.61900000
O        6.05520000       2.20780000      -0.41430000
C        6.82860000       2.02630000       0.67370000
O        7.74160000       2.74550000       0.94380000
H       -0.43420000       2.06680000       0.92890000
H        0.78940000       2.44600000      -0.92920000
H        2.47350000       0.18370000      -0.06980000
H        2.43740000       0.85360000      -1.70810000
H        3.58630000       2.94170000      -0.86400000
H        3.60190000       2.25840000       0.76210000
H        5.08710000       0.41050000      -0.00300000
H        5.00360000       1.00580000      -1.66960000
H        6.52710000       1.14290000       1.27110000
