19
Properties=species:S:1:pos:R:3 gdb_13484=T pbc="F F F"
C        0.02250000       1.57950000       0.11430000
C        0.02510000       0.04590000       0.05940000
C        0.73820000      -0.55930000       1.27580000
C       -1.40570000      -0.49390000      -0.05370000
C       -2.19240000      -0.23630000      -1.36010000
O       -2.29750000      -1.67630000      -1.59050000
C       -1.57640000      -1.95150000      -0.44760000
N       -1.20640000      -3.04970000       0.03340000
H        1.04470000       1.96780000       0.16270000
H       -0.45900000       2.02100000      -0.76510000
H       -0.51080000       1.93750000       1.00290000
H        0.56640000      -0.26550000      -0.84530000
H        0.25390000      -0.24120000       2.20690000
H        0.71550000      -1.65120000       1.24070000
H        1.78130000      -0.22930000       1.31530000
H       -1.97460000      -0.24070000       0.84720000
H       -3.18140000       0.21740000      -1.26400000
H       -1.63020000       0.24310000      -2.16640000
H       -1.50960000      -3.83230000      -0.54910000
