18
Properties=species:S:1:pos:R:3 gdb_92769=T pbc="F F F"
C       -0.39340000       1.46700000       0.02060000
C        0.09580000       0.02870000       0.03280000
C        0.98220000      -0.37770000      -1.17980000
N        2.27510000      -0.76460000      -0.60260000
C        2.16650000      -0.60200000       0.65140000
O        0.98600000      -0.16980000       1.16760000
C        3.22720000      -0.83490000       1.66600000
C        4.40160000      -1.65780000       1.34060000
O        4.50130000      -0.24010000       1.40100000
H        0.44750000       2.15670000      -0.10280000
H       -1.08760000       1.61770000      -0.81270000
H       -0.91310000       1.71430000       0.95020000
H       -0.74530000      -0.65840000       0.17230000
H        0.55980000      -1.21330000      -1.74750000
H        1.11880000       0.45440000      -1.88100000
H        2.88850000      -0.75570000       2.69640000
H        4.90350000      -2.20150000       2.13980000
H        4.46660000      -2.08510000       0.34290000
