13
Properties=species:S:1:pos:R:3 gdb_18813=T pbc="F F F"
N       -0.08200000       1.25660000       0.13800000
C       -0.03260000       0.00890000      -0.02030000
O        1.11020000      -0.75870000      -0.09550000
C        0.72950000      -2.07330000      -0.46160000
C       -0.35270000      -2.74980000       0.36690000
O       -1.05300000      -1.77390000       1.12500000
C       -1.19280000      -0.95450000      -0.09030000
C       -0.68200000      -2.11950000      -0.96880000
H        0.85730000       1.65390000       0.20240000
H        1.53180000      -2.64380000      -0.90940000
H       -0.32870000      -3.76930000       0.73310000
H       -2.18320000      -0.52310000      -0.20140000
H       -1.05090000      -2.48230000      -1.91760000
