19
Properties=species:S:1:pos:R:3 gdb_79048=T pbc="F F F"
C        0.05370000       1.52070000      -0.14070000
N       -0.00770000       0.06210000      -0.08530000
C       -1.16900000      -0.51490000       0.72750000
C       -0.34670000      -1.76850000       1.07100000
N       -0.42970000      -1.69290000       2.57450000
C        1.02600000      -1.80620000       2.97000000
C        1.86330000      -0.98610000       1.88430000
C        0.63370000      -0.57650000       1.11230000
C       -0.51690000      -0.25660000       2.11570000
H        1.04270000       1.82530000      -0.49780000
H       -0.68620000       1.88230000      -0.86190000
H       -0.13290000       2.02210000       0.82410000
H       -2.20170000      -0.41490000       0.39380000
H       -0.23760000      -2.69540000       0.50860000
H        1.15620000      -1.39950000       3.97620000
H        1.31020000      -2.86140000       2.98680000
H        2.41950000      -0.15580000       2.32610000
H        2.55430000      -1.62080000       1.32420000
H       -0.62550000       0.57150000       2.81610000
