25
Properties=species:S:1:pos:R:3 gdb_116313=T pbc="F F F"
C       -0.15030000       1.57160000       0.05050000
C       -0.00350000       0.04670000       0.01130000
C        0.77140000      -0.49690000      -1.20360000
C        2.23480000      -0.01890000      -1.25870000
C        2.99110000      -0.67930000      -2.41720000
C        3.11850000      -2.19860000      -2.22570000
C        1.80640000      -2.86110000      -1.80330000
C        1.42920000      -2.91700000      -0.34060000
C        0.66380000      -2.01560000      -1.27750000
H        0.81650000       2.07410000       0.15280000
H       -0.62390000       1.94770000      -0.86380000
H       -0.77130000       1.88300000       0.89640000
H        0.48570000      -0.30180000       0.93040000
H       -1.00320000      -0.40710000       0.01400000
H        0.28130000      -0.10340000      -2.10850000
H        2.25880000       1.06980000      -1.37110000
H        2.74120000      -0.23980000      -0.30810000
H        2.45190000      -0.47180000      -3.35140000
H        3.98700000      -0.23550000      -2.52700000
H        3.47220000      -2.65410000      -3.15670000
H        3.89470000      -2.40290000      -1.47670000
H        1.52040000      -3.72640000      -2.39370000
H        0.93470000      -3.80450000       0.03970000
H        2.11920000      -2.46370000       0.36520000
H       -0.33520000      -2.36200000      -1.53220000
