17
Properties=species:S:1:pos:R:3 gdb_35988=T pbc="F F F"
C       -0.11540000      -1.06160000      -0.74920000
C       -0.00780000      -0.05670000      -0.10150000
C        0.11150000       1.16460000       0.69760000
C        1.33920000       1.91880000       0.43970000
C        2.34290000       2.54850000       0.22900000
C        3.56220000       3.29400000      -0.02990000
C        4.51590000       2.75350000      -1.13220000
C        4.29860000       4.12720000      -1.79370000
O        3.35140000       4.52170000      -0.77740000
H       -0.20820000      -1.94900000      -1.32490000
H       -0.75520000       1.81170000       0.50340000
H        0.05380000       0.90770000       1.76430000
H        4.07300000       3.51050000       0.91830000
H        5.52970000       2.52770000      -0.80040000
H        4.11210000       1.90620000      -1.68570000
H        5.17660000       4.78490000      -1.80780000
H        3.84540000       4.11790000      -2.79140000
