18
Properties=species:S:1:pos:R:3 gdb_92077=T pbc="F F F"
O        0.05980000       1.40380000       0.12160000
C        0.00260000       0.01420000      -0.02510000
C       -1.45080000      -0.50130000       0.05970000
C       -1.60040000      -1.94380000      -0.40100000
N       -1.74640000      -2.13420000      -1.85580000
C       -0.53550000      -2.63020000      -1.19360000
C        0.74500000      -1.91040000      -1.57470000
C        0.65940000      -0.41680000      -1.33270000
O        1.11840000       0.41620000      -2.08280000
H        0.49710000       1.72380000      -0.68500000
H        0.58180000      -0.47650000       0.77840000
H       -1.79430000      -0.38950000       1.09210000
H       -2.07400000       0.14690000      -0.56340000
H       -2.20400000      -2.58270000       0.23970000
H       -2.38750000      -2.89500000      -2.06100000
H       -0.43350000      -3.70560000      -1.06290000
H        1.57010000      -2.28610000      -0.95300000
H        1.01090000      -2.08880000      -2.62040000
