16
Properties=species:S:1:pos:R:3 gdb_34079=T pbc="F F F"
C        0.01020000      -1.21500000      -0.00590000
C        0.02190000      -0.01260000      -0.03010000
C        0.01880000       1.42710000      -0.04940000
C       -0.89270000       2.20880000       0.99080000
N       -1.38940000       3.14230000      -0.04880000
C       -0.21440000       3.56420000      -0.95460000
C        1.17960000       3.39700000      -0.47830000
C        1.34870000       2.15350000      -0.01500000
C       -0.83670000       2.23290000      -1.09250000
H        0.00390000      -2.27670000       0.01160000
H       -1.73430000       1.59190000       1.31030000
H       -0.38820000       2.65680000       1.85210000
H       -0.51080000       4.38880000      -1.59060000
H        1.90850000       4.19670000      -0.46360000
H        2.21830000       1.74620000       0.48440000
H       -1.41030000       1.84080000      -1.92600000
