17
Properties=species:S:1:pos:R:3 gdb_24397=T pbc="F F F"
C       -0.01880000       1.48670000       0.10120000
C        1.37200000       2.15650000      -0.03840000
C        2.15950000       1.40780000      -1.06270000
C        1.97950000       0.07480000      -1.34670000
C        0.92810000      -0.68530000      -0.69370000
C        0.00830000      -0.02920000       0.02820000
N        2.92730000      -0.36970000      -2.24510000
C        3.67040000       0.68190000      -2.49850000
N        3.25340000       1.78750000      -1.79960000
H       -0.48730000       1.81740000       1.03340000
H       -0.66760000       1.85450000      -0.70960000
H        1.24840000       3.21550000      -0.29160000
H        1.89950000       2.12760000       0.92800000
H        0.91750000      -1.76480000      -0.79990000
H       -0.79490000      -0.56650000       0.52230000
H        4.51040000       0.71860000      -3.17590000
H        3.66560000       2.70510000      -1.83580000
