23
Properties=species:S:1:pos:R:3 gdb_122086=T pbc="F F F"
C       -0.05470000       1.51910000      -0.01370000
C       -0.01180000       0.00100000       0.02710000
O       -1.33680000      -0.48720000      -0.02300000
C       -1.41760000      -1.89020000       0.01110000
C       -2.89730000      -2.30270000       0.03840000
C       -3.04390000      -3.83220000      -0.14100000
C       -4.49590000      -4.29800000      -0.26000000
C       -3.54820000      -1.83890000       1.26260000
C       -4.07900000      -1.49390000       2.28470000
H        0.95820000       1.93070000       0.02720000
H       -0.53380000       1.86460000      -0.93420000
H       -0.62410000       1.90780000       0.83500000
H        0.57220000      -0.39310000      -0.82260000
H        0.48620000      -0.34840000       0.94750000
H       -0.93670000      -2.32900000      -0.88010000
H       -0.90090000      -2.29260000       0.89830000
H       -3.37690000      -1.80690000      -0.81720000
H       -2.48720000      -4.12180000      -1.04050000
H       -2.56040000      -4.33450000       0.70540000
H       -4.54780000      -5.38420000      -0.38090000
H       -5.06820000      -4.02610000       0.63120000
H       -4.98750000      -3.84130000      -1.12620000
H       -4.54880000      -1.16840000       3.17950000
