17
Properties=species:S:1:pos:R:3 gdb_63502=T pbc="F F F"
C       -0.10120000       1.54240000       0.05170000
C       -0.04200000       0.02610000       0.02170000
C       -1.33950000      -0.63380000      -0.40210000
N        1.22380000      -0.54890000      -0.40330000
C        0.85040000      -0.71530000       1.02640000
C        1.71700000       0.04510000       1.99630000
O        1.76150000      -0.18360000       3.17420000
C        0.40640000      -2.00640000       1.49470000
N        0.06350000      -3.05460000       1.84230000
H        0.87780000       1.98830000       0.22860000
H       -0.46410000       1.90830000      -0.91460000
H       -0.79490000       1.88820000       0.82390000
H       -1.58100000      -0.32870000      -1.42620000
H       -1.28190000      -1.72360000      -0.36730000
H       -2.16470000      -0.31740000       0.24300000
H        1.09130000      -1.42930000      -0.89720000
H        2.32220000       0.83760000       1.51290000
