23
Properties=species:S:1:pos:R:3 gdb_100533=T pbc="F F F"
C        0.20160000       1.46980000      -0.06250000
C        0.02470000      -0.04530000       0.05800000
C       -1.46440000      -0.45520000      -0.00700000
O       -2.04920000      -0.02560000      -1.20820000
C       -1.61290000      -1.97000000       0.12710000
O       -1.99120000      -2.60810000      -0.83560000
C       -1.31440000      -2.63830000       1.46260000
C       -2.65260000      -3.08570000       2.08540000
C       -0.35970000      -3.82590000       1.27000000
H        1.26160000       1.74060000      -0.07110000
H       -0.25710000       1.83170000      -0.98550000
H       -0.27150000       1.99040000       0.77760000
H        0.54890000      -0.54960000      -0.76300000
H        0.46880000      -0.40330000       0.99440000
H       -1.98880000       0.01210000       0.84440000
H       -2.24550000      -0.84320000      -1.69510000
H       -0.85300000      -1.90060000       2.12880000
H       -2.47730000      -3.55580000       3.05750000
H       -3.33240000      -2.24100000       2.23650000
H       -3.14940000      -3.80950000       1.43310000
H        0.61430000      -3.50130000       0.89090000
H       -0.19790000      -4.34400000       2.21990000
H       -0.78240000      -4.53380000       0.55230000
