20
Properties=species:S:1:pos:R:3 gdb_126812=T pbc="F F F"
C        0.13970000       1.53610000       0.04570000
C       -0.01730000       0.01970000      -0.09440000
N        0.69980000      -0.52370000      -1.23160000
N        0.02320000      -0.80630000      -2.38210000
C        0.96420000      -1.18590000      -3.23420000
C        2.25400000      -1.16330000      -2.66210000
C        2.04040000      -0.72430000      -1.36480000
N        2.92760000      -0.43660000      -0.33350000
C        4.31470000      -0.82970000      -0.53150000
H        1.18990000       1.80740000       0.18350000
H       -0.23290000       2.03810000      -0.85110000
H       -0.42860000       1.89730000       0.90860000
H        0.31680000      -0.48770000       0.82010000
H       -1.06320000      -0.25240000      -0.24890000
H        0.68730000      -1.47810000      -4.23720000
H        3.19220000      -1.43400000      -3.11590000
H        2.57560000      -0.69740000       0.57820000
H        4.44480000      -1.90660000      -0.71890000
H        4.72690000      -0.28510000      -1.38630000
H        4.89130000      -0.55380000       0.35430000
