22
Properties=species:S:1:pos:R:3 gdb_93240=T pbc="F F F"
C       -0.12310000       1.54870000      -0.00810000
C        0.00460000       0.02320000       0.01620000
C        0.72250000      -0.47840000      -1.23270000
O        0.92640000      -1.89710000      -1.24990000
C        1.39930000      -2.52330000      -0.12680000
N        2.14580000      -3.54200000      -0.21900000
C        0.87800000      -2.02660000       1.21160000
C        1.68090000      -2.58000000       2.38980000
C        0.76610000      -0.49270000       1.24010000
H        0.86280000       2.02760000      -0.02030000
H       -0.67280000       1.89200000      -0.89100000
H       -0.65550000       1.90850000       0.87770000
H       -1.00260000      -0.41640000       0.02460000
H        0.15190000      -0.26100000      -2.13990000
H        1.70010000       0.01960000      -1.32290000
H        2.34920000      -3.73030000      -1.20320000
H       -0.14910000      -2.41930000       1.27560000
H        2.71300000      -2.21730000       2.36210000
H        1.22980000      -2.26100000       3.33520000
H        1.71610000      -3.66970000       2.36130000
H        1.77200000      -0.04860000       1.25800000
H        0.27030000      -0.18090000       2.16640000
