17
Properties=species:S:1:pos:R:3 gdb_67830=T pbc="F F F"
O       -0.06350000       1.39650000      -0.04200000
C        0.01000000       0.00630000      -0.06490000
C        0.93570000      -0.68390000      -1.02450000
C        0.42080000      -1.84610000      -1.42690000
C       -0.87010000      -2.14760000      -0.66770000
O       -0.55410000      -3.00550000       0.44160000
C        0.11590000      -2.19690000       1.41430000
C       -0.39050000      -0.77110000       1.20430000
C       -1.25120000      -0.79490000      -0.03350000
H        0.68060000       1.73010000       0.47050000
H        1.90050000      -0.27280000      -1.30030000
H        0.90670000      -2.58240000      -2.05530000
H       -1.65100000      -2.64520000      -1.24480000
H       -0.14430000      -2.58040000       2.40560000
H        1.20510000      -2.27160000       1.28860000
H       -0.68930000      -0.17530000       2.05970000
H       -2.23910000      -0.35930000      -0.09680000
