21
Properties=species:S:1:pos:R:3 gdb_74471=T pbc="F F F"
C       -0.04080000       1.49440000       0.07340000
C       -0.00460000       0.00060000       0.00180000
C        0.05670000      -0.76450000      -1.09690000
C        0.05450000      -2.21910000      -0.77410000
C       -0.74780000      -3.21280000      -1.59060000
C        0.75600000      -3.24220000      -1.64410000
C        0.08410000      -2.28780000       0.73690000
C        1.26440000      -1.67320000       1.44710000
C        0.00460000      -0.85400000       1.23320000
H        0.81800000       1.88820000       0.63200000
H       -0.03670000       1.94570000      -0.92250000
H       -0.93890000       1.84370000       0.59940000
H        0.12870000      -0.39400000      -2.11450000
H       -1.25600000      -4.00610000      -1.05100000
H       -1.28940000      -2.84360000      -2.45520000
H        1.24370000      -2.89090000      -2.54760000
H        1.27410000      -4.05490000      -1.14590000
H       -0.45620000      -3.08560000       1.23440000
H        1.46710000      -2.02490000       2.45360000
H        2.14460000      -1.41130000       0.86860000
H       -0.58500000      -0.56460000       2.09740000
