18
Properties=species:S:1:pos:R:3 gdb_52743=T pbc="F F F"
C        0.83490000       0.84780000       0.69010000
C        0.43040000      -0.52170000       0.40750000
C        0.08690000      -1.65840000       0.19690000
C       -0.35490000      -3.02290000      -0.10770000
C       -1.66820000      -2.94220000      -0.90440000
O       -2.75400000      -3.15000000      -0.43930000
N        0.56310000      -3.86370000      -0.89080000
C        1.47740000      -3.22750000      -1.83930000
C        1.98730000      -3.81880000      -0.57260000
H        1.91060000       0.91050000       0.88690000
H        0.61030000       1.51140000      -0.15170000
H        0.31240000       1.23650000       1.57060000
H       -0.58140000      -3.55800000       0.82080000
H       -1.52010000      -2.66610000      -1.97100000
H        1.59690000      -3.75150000      -2.78260000
H        1.47770000      -2.14230000      -1.90370000
H        2.31520000      -3.11940000       0.19300000
H        2.49000000      -4.78130000      -0.56980000
