21
Properties=species:S:1:pos:R:3 gdb_96257=T pbc="F F F"
C        0.05010000       1.56370000       0.07870000
C        0.01040000       0.03700000       0.05130000
C        0.57620000      -0.49720000      -1.28760000
O       -0.08380000      -1.61170000      -1.86930000
C       -0.25280000      -2.77450000      -1.06080000
C        1.00360000      -3.21000000      -0.35480000
C        1.37300000      -2.73370000       0.83470000
C        0.58140000      -1.71850000       1.63450000
O        0.75950000      -0.37790000       1.19300000
H        1.07260000       1.92170000      -0.08150000
H       -0.58980000       1.98030000      -0.70430000
H       -0.29050000       1.93200000       1.04910000
H       -1.03440000      -0.29870000       0.15200000
H        0.48240000       0.28010000      -2.05180000
H        1.64680000      -0.69130000      -1.13660000
H       -1.05850000      -2.61140000      -0.33090000
H       -0.59740000      -3.54620000      -1.75480000
H        1.66320000      -3.88830000      -0.89080000
H        2.32680000      -3.04040000       1.25790000
H       -0.48900000      -1.97250000       1.64000000
H        0.92050000      -1.72400000       2.67440000
