15
Properties=species:S:1:pos:R:3 gdb_125318=T pbc="F F F"
C        0.27320000       1.44040000      -0.04390000
C        0.06380000      -0.03760000      -0.03030000
C        0.32070000      -0.97710000      -1.00090000
N       -0.05570000      -2.15540000      -0.44090000
C       -0.05850000      -3.49470000      -0.99290000
C        1.26180000      -3.91110000      -1.47710000
N        2.29170000      -4.23760000      -1.88390000
N       -0.52490000      -1.96130000       0.81170000
N       -0.45370000      -0.68940000       1.05610000
H        0.97070000       1.74290000       0.74320000
H        0.67660000       1.77080000      -1.00400000
H       -0.66820000       1.96920000       0.13410000
H        0.73400000      -0.91210000      -1.99350000
H       -0.38970000      -4.15650000      -0.18830000
H       -0.77840000      -3.57350000      -1.81540000
