13
Properties=species:S:1:pos:R:3 gdb_48057=T pbc="F F F"
O       -0.67650000       1.22830000       0.90530000
C        0.09380000       0.97920000       0.02020000
C        1.24650000       1.91470000      -0.37140000
O        2.23600000       1.45620000      -0.88950000
C        1.08880000       3.42320000      -0.10430000
O        0.01770000       3.93490000      -0.29230000
C        2.37300000       4.14370000       0.29360000
C        2.24510000       5.58530000       0.38470000
C        2.13370000       6.77790000       0.46030000
H        0.11370000       0.01690000      -0.53320000
H        2.70140000       3.71220000       1.25120000
H        3.14540000       3.84290000      -0.42660000
H        2.03560000       7.83340000       0.52500000
