16
Properties=species:S:1:pos:R:3 gdb_68704=T pbc="F F F"
C       -0.01190000       1.53150000       0.08370000
C       -0.01800000       0.03400000       0.01490000
C        1.15130000      -0.79400000      -0.35920000
C        0.60440000      -0.96670000       1.06810000
C        1.40970000      -0.71660000       2.21390000
N        2.05140000      -0.49630000       3.15190000
C       -0.67960000      -1.76370000       0.99990000
O       -1.12230000      -2.65320000       1.66100000
C       -1.28520000      -0.83720000      -0.08100000
H        0.96640000       1.90920000       0.39470000
H       -0.24070000       1.95910000      -0.89900000
H       -0.76090000       1.89820000       0.79230000
H        1.05710000      -1.62350000      -1.05450000
H        2.11330000      -0.29230000      -0.38600000
H       -2.18410000      -0.35450000       0.31390000
H       -1.51020000      -1.27270000      -1.05850000
