15
Properties=species:S:1:pos:R:3 gdb_74254=T pbc="F F F"
N        0.06170000       1.35580000       0.20000000
C        0.00930000      -0.00140000       0.02580000
N       -1.07710000      -0.66340000      -0.13600000
C       -0.75820000      -2.10880000      -0.10820000
C       -1.33230000      -2.83160000      -1.24030000
C       -1.79380000      -3.45330000      -2.15820000
C        0.77430000      -2.20960000      -0.04110000
O        1.43010000      -1.57870000      -1.13720000
C        1.26240000      -0.83300000       0.08290000
H        0.88900000       1.82680000      -0.13230000
H       -0.80240000       1.84010000       0.00030000
H       -1.17080000      -2.53340000       0.81940000
H       -2.20290000      -3.99200000      -2.97660000
H        1.27130000      -3.07680000       0.38300000
H        2.16890000      -0.52360000       0.59490000
