15
Properties=species:S:1:pos:R:3 gdb_34548=T pbc="F F F"
C        0.04860000      -1.10400000       0.14300000
C       -0.03690000       0.09230000       0.05400000
C       -0.10120000       1.50680000      -0.05050000
N       -1.18150000       2.19340000      -0.09460000
C       -0.73510000       3.58970000      -0.03530000
C       -0.16200000       3.79580000       1.41380000
C        1.20570000       3.39990000       0.85770000
C        0.74420000       3.58880000      -0.54210000
N        1.14170000       2.24370000      -0.11660000
H        0.11240000      -2.16160000       0.21980000
H       -1.47050000       4.29490000      -0.41310000
H       -0.15260000       4.85390000       1.68600000
H       -0.61760000       3.20070000       2.20940000
H        2.17420000       3.56010000       1.31400000
H        1.19860000       4.04720000      -1.41270000
