18
Properties=species:S:1:pos:R:3 gdb_28443=T pbc="F F F"
C       -0.02880000       1.52410000      -0.01190000
C        0.00860000       0.01760000      -0.00160000
C       -0.01360000      -0.71910000      -1.18170000
C        0.03490000      -2.11090000      -1.19530000
C        0.10810000      -2.79180000       0.01880000
O        0.15820000      -4.15450000       0.09720000
C        0.12680000      -2.08520000       1.21760000
C        0.08010000      -0.68890000       1.21900000
N        0.16510000       0.00960000       2.42630000
H        0.83700000       1.95680000       0.50500000
H       -0.03170000       1.90660000      -1.03560000
H       -0.92660000       1.92360000       0.48230000
H       -0.06900000      -0.18570000      -2.12650000
H        0.01810000      -2.65660000      -2.13410000
H        0.13740000      -4.51470000      -0.79510000
H        0.18180000      -2.63830000       2.14960000
H       -0.07820000      -0.53420000       3.24140000
H       -0.29410000       0.90840000       2.43380000
