22
Properties=species:S:1:pos:R:3 gdb_85907=T pbc="F F F"
C        0.04970000       1.59760000       0.05560000
C        0.02840000       0.06850000       0.02750000
C        0.75980000      -0.55020000      -1.19070000
C        1.24800000      -1.95660000      -0.74580000
C        0.18380000      -3.03810000      -0.97440000
O        2.47280000      -2.33960000      -1.36320000
C        1.48220000      -1.77510000       0.74620000
N        2.20260000      -0.53140000       1.08730000
C        0.73030000      -0.58680000       1.21200000
H        1.08100000       1.95840000       0.11850000
H       -0.40610000       2.01830000      -0.84700000
H       -0.50110000       1.98830000       0.91850000
H       -1.01590000      -0.27310000       0.03400000
H        0.12390000      -0.59240000      -2.08090000
H        1.64500000       0.04380000      -1.42930000
H       -0.01740000      -3.15500000      -2.04590000
H        0.52710000      -4.00190000      -0.58610000
H       -0.76200000      -2.78330000      -0.48540000
H        2.30480000      -2.45430000      -2.30450000
H        1.62570000      -2.65510000       1.36580000
H        2.62400000      -0.64070000       2.00610000
H        0.28320000      -0.54030000       2.20090000
