23
Properties=species:S:1:pos:R:3 gdb_119576=T pbc="F F F"
C        0.86810000       1.54120000      -0.43470000
O        1.09120000       0.15960000      -0.57200000
C       -0.10510000      -0.58660000      -0.65650000
C        0.22310000      -2.04700000      -0.76940000
C        1.39860000      -2.67150000      -0.07120000
C        1.32310000      -2.74100000      -1.57350000
C        0.35070000      -3.84990000      -1.99200000
C       -0.79590000      -3.11690000      -1.21010000
C       -1.58540000      -3.87880000      -0.15170000
H        0.31620000       1.95440000      -1.29420000
H        0.29960000       1.77500000       0.47970000
H        1.84520000       2.02720000      -0.37690000
H       -0.73390000      -0.39780000       0.23360000
H       -0.69370000      -0.26250000      -1.53430000
H        2.10990000      -1.95210000       0.31810000
H        1.29020000      -3.57370000       0.52710000
H        2.08200000      -2.29080000      -2.20150000
H        0.16180000      -3.89640000      -3.06680000
H        0.60540000      -4.85670000      -1.64100000
H       -1.49400000      -2.67560000      -1.93080000
H       -0.92630000      -4.33120000       0.59630000
H       -2.28430000      -3.21970000       0.37550000
H       -2.17060000      -4.68530000      -0.60750000
