15
Properties=species:S:1:pos:R:3 gdb_51280=T pbc="F F F"
O       -0.40010000       0.08070000       0.00240000
C       -0.09710000       1.24130000       0.00740000
N        1.18950000       1.76530000      -0.00120000
C        2.40870000       1.09440000      -0.01680000
N        2.53920000      -0.17390000      -0.02910000
C        3.95700000      -0.50910000      -0.04330000
C        4.73990000       0.81140000      -0.03830000
O        5.93100000       0.95690000      -0.04650000
C        3.67610000       1.92100000      -0.01980000
H       -0.83650000       2.06850000       0.01990000
H        1.24460000       2.77240000       0.00570000
H        4.22720000      -1.12020000       0.82720000
H        4.21320000      -1.10520000      -0.92850000
H        3.77280000       2.57040000      -0.89760000
H        3.78710000       2.55470000       0.86770000
