21
Properties=species:S:1:pos:R:3 gdb_75503=T pbc="F F F"
C        0.29200000       1.54420000       0.06340000
C       -0.00050000       0.06590000      -0.01630000
C        0.00470000      -0.56210000      -1.19840000
C       -0.21360000      -2.01480000      -1.55550000
C       -0.28100000      -3.02130000      -0.39550000
C       -1.46520000      -2.73400000       0.50000000
O       -1.29180000      -2.83130000       1.91870000
C       -1.46180000      -1.53130000       1.33450000
C       -0.26290000      -0.59900000       1.33110000
H        1.15680000       1.74010000       0.71130000
H        0.50190000       1.97430000      -0.91930000
H       -0.55190000       2.09100000       0.50450000
H        0.20500000       0.05830000      -2.07220000
H       -1.13300000      -2.09220000      -2.15730000
H        0.59010000      -2.31750000      -2.24050000
H       -0.34770000      -4.03870000      -0.79700000
H        0.63630000      -2.97760000       0.19810000
H       -2.42690000      -3.10860000       0.14500000
H       -2.41950000      -1.06540000       1.56800000
H        0.61570000      -1.16710000       1.65620000
H       -0.40960000       0.17650000       2.09070000
