18
Properties=species:S:1:pos:R:3 gdb_54759=T pbc="F F F"
C       -0.11330000       1.54110000      -0.14800000
C        0.06860000       0.05460000       0.09940000
O        1.15530000      -0.45410000       0.25210000
C       -1.23130000      -0.72420000       0.15370000
N       -1.20040000      -2.23900000       0.41310000
C       -0.91020000      -1.88740000       1.88590000
C       -2.00880000      -0.87070000       1.48550000
O       -2.54780000       0.20430000       2.17040000
C       -2.68410000      -2.07720000       0.78950000
H        0.85070000       2.04700000      -0.08380000
H       -0.55110000       1.71240000      -1.13830000
H       -0.81170000       1.95760000       0.58680000
H       -1.85220000      -0.46250000      -0.71100000
H       -1.19350000      -2.68710000       2.57500000
H        0.10590000      -1.54000000       2.05690000
H       -2.89200000      -0.10190000       3.01700000
H       -3.33880000      -1.88530000      -0.06410000
H       -3.05390000      -2.89440000       1.41400000
