18
Properties=species:S:1:pos:R:3 gdb_40274=T pbc="F F F"
C       -0.26920000       1.49210000       0.01700000
C        1.19730000       1.16600000       0.04800000
C        0.17410000       0.04280000       0.01240000
C       -0.08030000      -0.73200000       1.28510000
O        0.74450000      -1.88490000       1.40860000
C        0.30340000      -2.94950000       0.64640000
O        0.64090000      -2.89070000      -0.73750000
C        0.30130000      -1.82070000      -1.50870000
N        0.07480000      -0.60600000      -1.25320000
H       -0.73330000       1.88300000       0.91660000
H       -0.68570000       1.85950000      -0.91250000
H        1.77120000       1.32450000      -0.85630000
H        1.74720000       1.31110000       0.97140000
H        0.13000000      -0.10520000       2.15600000
H       -1.13780000      -1.03950000       1.33150000
H        0.80260000      -3.84960000       1.00870000
H       -0.79160000      -3.05500000       0.72440000
H        0.28330000      -2.14600000      -2.54860000
