21
Properties=species:S:1:pos:R:3 gdb_1572=T pbc="F F F"
C       -0.01670000       1.59860000      -0.03080000
C        0.00550000       0.06920000       0.02790000
C       -1.39550000      -0.55010000       0.01340000
C       -1.39340000      -2.07960000       0.02780000
C       -2.80900000      -2.65520000       0.13050000
O       -0.74040000      -2.50010000      -1.16690000
C       -0.26370000      -3.82340000      -1.15030000
H        0.99630000       2.01330000      -0.01880000
H       -0.50900000       1.95230000      -0.94370000
H       -0.55980000       2.02410000       0.82110000
H        0.57260000      -0.33080000      -0.81860000
H        0.53400000      -0.25510000       0.93470000
H       -1.97010000      -0.19450000       0.87830000
H       -1.93800000      -0.21780000      -0.88180000
H       -0.80230000      -2.42670000       0.89430000
H       -3.41500000      -2.32350000      -0.71870000
H       -2.80290000      -3.74900000       0.13970000
H       -3.29270000      -2.31990000       1.05350000
H        0.29060000      -3.97790000      -2.08000000
H        0.41550000      -4.00150000      -0.30120000
H       -1.07180000      -4.56830000      -1.10310000
