17
Properties=species:S:1:pos:R:3 gdb_46883=T pbc="F F F"
O       -0.12280000       1.23310000      -1.69520000
C       -0.01840000       1.50060000      -0.51220000
C       -1.24530000       1.54280000       0.38090000
C       -1.40220000       2.80300000       1.24650000
C       -0.51770000       2.83760000       2.47380000
O       -0.05260000       1.59260000       2.98330000
C        0.92520000       2.51690000       2.45950000
C        1.71710000       2.17130000       1.25510000
C        1.33600000       1.75760000       0.03770000
H       -2.10760000       1.43010000      -0.27930000
H       -1.20880000       0.67300000       1.04640000
H       -1.23380000       3.71370000       0.65770000
H       -2.44340000       2.84970000       1.58580000
H       -0.84020000       3.53920000       3.24600000
H        1.52740000       2.96600000       3.24850000
H        2.78660000       2.31130000       1.40050000
H        2.10730000       1.58580000      -0.70840000
