23
Properties=species:S:1:pos:R:3 gdb_112559=T pbc="F F F"
C        0.29880000       1.27150000       0.61150000
C        0.28600000      -0.19530000       0.17100000
C        0.46780000      -0.36570000      -1.33760000
C        1.92950000      -0.20550000      -1.86090000
C        2.05950000      -1.75350000      -1.96900000
C        2.73860000      -2.35460000      -3.18680000
O        2.56990000      -2.32860000      -0.76360000
C        0.50720000      -1.84790000      -1.84340000
O       -0.01200000      -2.87790000      -1.05230000
H        1.23970000       1.76440000       0.34180000
H       -0.51350000       1.83430000       0.13800000
H        0.17810000       1.36120000       1.69580000
H        1.07390000      -0.74570000       0.69780000
H       -0.66210000      -0.66260000       0.46220000
H       -0.26790000       0.25480000      -1.86030000
H        1.99320000       0.29040000      -2.83330000
H        2.63970000       0.27120000      -1.17860000
H        3.81260000      -2.12780000      -3.19260000
H        2.61950000      -3.44250000      -3.19050000
H        2.31160000      -1.95420000      -4.11150000
H        3.50560000      -2.11430000      -0.69260000
H        0.04320000      -1.93120000      -2.83160000
H        0.64830000      -3.04850000      -0.36840000
