21
Properties=species:S:1:pos:R:3 gdb_77690=T pbc="F F F"
C        0.71570000       1.33470000      -0.12930000
C       -0.08100000       0.03920000      -0.06390000
O       -1.47680000       0.28080000      -0.07520000
C        0.45250000      -1.07640000      -1.02690000
C        1.18460000      -1.68490000       0.17470000
C        1.76920000      -3.04780000       0.37100000
C        2.67120000      -1.83460000       0.32310000
C        0.31540000      -0.87740000       1.13360000
O        0.99030000      -0.32910000       2.24040000
H        1.78950000       1.14370000      -0.06310000
H        0.52060000       1.85440000      -1.07590000
H        0.43660000       1.99700000       0.69500000
H       -1.67710000       0.85830000      -0.81980000
H       -0.36910000      -1.70220000      -1.38780000
H        1.06320000      -0.75040000      -1.87370000
H        1.62040000      -3.53250000       1.33110000
H        1.77720000      -3.72640000      -0.47620000
H        3.28860000      -1.69040000      -0.55810000
H        3.11340000      -1.49240000       1.25200000
H       -0.57280000      -1.44570000       1.44500000
H        0.33500000       0.02200000       2.85100000
