17
Properties=species:S:1:pos:R:3 gdb_85099=T pbc="F F F"
C       -0.09550000       1.56710000      -0.06070000
C       -0.00630000       0.05350000      -0.00500000
N        1.00400000      -0.55530000      -0.88730000
C        1.78120000      -1.09660000       0.08970000
O        2.82740000      -1.68500000       0.10690000
C        0.79810000      -0.58940000       1.20660000
N        1.48410000       0.35270000       2.08170000
C        0.07180000      -1.64400000       1.89610000
C       -0.53290000      -2.49810000       2.48970000
H        0.87350000       2.02100000       0.15310000
H       -0.43850000       1.89210000      -1.04910000
H       -0.81730000       1.93120000       0.67750000
H       -0.99150000      -0.40680000      -0.12910000
H        1.14850000      -0.49660000      -1.88480000
H        0.96150000       0.47730000       2.94310000
H        2.38470000      -0.04440000       2.33610000
H       -1.05380000      -3.26210000       3.01230000
