16
Properties=species:S:1:pos:R:3 gdb_84550=T pbc="F F F"
O        0.28040000       1.21700000      -0.34610000
C        0.01220000      -0.13910000      -0.01000000
C        0.60270000      -0.54550000       1.32020000
C       -0.32620000      -0.86820000       2.22380000
C       -1.72080000      -0.82370000       1.65520000
C       -1.48840000      -0.42880000       0.17380000
O       -1.86650000      -1.78400000      -0.24230000
C       -2.18080000      -2.14500000       1.05280000
N       -2.67530000      -3.19750000       1.51580000
H        0.17820000       1.74060000       0.45650000
H        0.39720000      -0.73160000      -0.84730000
H        1.67300000      -0.53860000       1.49300000
H       -0.13310000      -1.17850000       3.24400000
H       -2.46080000      -0.30220000       2.26420000
H       -2.13080000       0.31650000      -0.29700000
H       -2.85710000      -3.88170000       0.77940000
