18
Properties=species:S:1:pos:R:3 gdb_17582=T pbc="F F F"
C        0.00320000       1.51770000       0.09450000
C       -0.04050000       0.01600000       0.05500000
C        1.16210000      -0.83410000      -0.31950000
C        0.54740000      -0.98730000       1.05230000
O        1.23680000      -0.64950000       2.20780000
C       -0.70870000      -1.82160000       1.00230000
C       -1.91590000      -0.98590000       1.34490000
C       -1.29410000      -0.83140000      -0.01770000
H        0.95490000       1.86870000       0.50570000
H       -0.10880000       1.94960000      -0.90700000
H       -0.79990000       1.91870000       0.72220000
H        1.07950000      -1.62160000      -1.06480000
H        2.10840000      -0.29990000      -0.32740000
H        1.94950000      -1.28490000       2.33420000
H       -0.75210000      -2.90470000       0.96000000
H       -2.86090000      -1.52070000       1.37130000
H       -1.83120000      -0.19050000       2.08020000
H       -1.82580000      -1.09190000      -0.92630000
