16
Properties=species:S:1:pos:R:3 gdb_70165=T pbc="F F F"
C       -0.24140000       1.54450000       0.09010000
C        0.11630000       0.08910000       0.00050000
N       -0.67340000      -0.95810000       0.72600000
C        0.72670000      -0.73290000       1.09500000
C        1.62250000      -1.82540000       0.53920000
C        1.34010000      -1.81930000      -0.96500000
O        1.67940000      -2.63160000      -1.77830000
C        0.57090000      -0.49900000      -1.30230000
O        0.45130000      -0.03330000      -2.40320000
H        0.59190000       2.17170000      -0.24090000
H       -1.09740000       1.77010000      -0.55330000
H       -0.49340000       1.82440000       1.11810000
H       -1.29650000      -0.48190000       1.37550000
H        0.95810000      -0.26610000       2.04720000
H        2.68440000      -1.59470000       0.69120000
H        1.42380000      -2.80910000       0.97240000
