16
Properties=species:S:1:pos:R:3 gdb_97087=T pbc="F F F"
C        0.08100000       1.36030000      -0.17540000
N       -0.05710000      -0.08130000      -0.30360000
C       -1.11370000      -0.65260000       0.04770000
C       -1.40280000      -2.13440000      -0.04150000
O       -2.65740000      -2.29720000       0.61110000
C       -3.24420000      -1.02660000       0.77450000
O       -2.22960000      -0.05330000       0.59540000
C       -4.32630000      -0.81420000      -0.29040000
O       -5.47940000      -0.60580000      -0.03320000
H        0.89510000       1.57810000       0.52480000
H        0.37780000       1.77370000      -1.14500000
H       -0.82490000       1.87160000       0.16780000
H       -1.44630000      -2.46640000      -1.08620000
H       -0.64450000      -2.72370000       0.48090000
H       -3.67810000      -0.93610000       1.77550000
H       -3.94480000      -0.88510000      -1.33410000
