20
Properties=species:S:1:pos:R:3 gdb_91968=T pbc="F F F"
O       -0.00060000       1.39540000      -0.21300000
C        0.01990000      -0.01930000      -0.00550000
C        0.56690000      -0.42820000       1.38590000
N       -0.55980000      -0.57270000       2.32640000
C       -1.47060000       0.58720000       2.34900000
C       -1.78640000      -0.59470000       1.50290000
C       -1.41740000      -0.52490000       0.04520000
C       -2.40390000      -0.19010000      -1.03850000
C       -1.88670000      -1.59960000      -0.90780000
H        0.90840000       1.71080000      -0.17180000
H        0.58890000      -0.49950000      -0.81390000
H        1.06170000      -1.40380000       1.31530000
H        1.29900000       0.29280000       1.76670000
H       -1.98800000       0.72290000       3.29490000
H       -1.16530000       1.49830000       1.84480000
H       -2.56640000      -1.29140000       1.80060000
H       -3.42840000       0.00980000      -0.74310000
H       -2.05040000       0.41930000      -1.86230000
H       -1.18670000      -1.96270000      -1.65320000
H       -2.55700000      -2.35950000      -0.51870000
