20
Properties=species:S:1:pos:R:3 gdb_82230=T pbc="F F F"
O        0.00260000       1.41580000       0.04030000
C        0.04420000      -0.00040000      -0.00240000
C       -1.36230000      -0.59780000       0.07140000
N       -2.30930000      -0.04450000      -0.92380000
C       -1.80260000      -1.42290000      -1.08190000
C       -0.74210000      -1.67390000      -2.14830000
C       -0.03690000      -0.34750000      -2.53660000
C        0.80150000      -0.52410000      -1.24010000
C        0.57580000      -2.05730000      -1.40410000
H       -0.74170000       1.66860000      -0.52150000
H        0.59910000      -0.31350000       0.89080000
H       -1.75200000      -0.80850000       1.06310000
H       -3.25250000      -0.05730000      -0.54590000
H       -2.49920000      -2.23660000      -0.89450000
H       -1.10830000      -2.32440000      -2.94570000
H        0.58300000      -0.48240000      -3.42660000
H       -0.65400000       0.54370000      -2.64970000
H        1.82440000      -0.14210000      -1.23250000
H        0.49070000      -2.67010000      -0.50060000
H        1.31270000      -2.50280000      -2.07710000
