16
Properties=species:S:1:pos:R:3 gdb_71538=T pbc="F F F"
N        0.21980000       1.42300000      -0.11060000
C        0.08410000       0.01920000      -0.09350000
C        0.50860000      -0.97950000      -1.15980000
N        0.00250000      -1.93420000      -0.08230000
C        0.54980000      -0.97340000       1.01180000
C       -0.78620000      -1.00270000       1.75920000
C       -1.15010000      -0.96580000       0.27040000
C       -2.43310000      -1.03450000      -0.36840000
N       -3.46450000      -1.03180000      -0.89390000
H       -0.08450000       1.85680000       0.75490000
H       -0.29040000       1.84620000      -0.87920000
H       -0.06550000      -1.02810000      -2.08980000
H        1.58050000      -1.08030000      -1.35400000
H        1.56420000      -1.10570000       1.38730000
H       -1.02530000      -1.93410000       2.27690000
H       -1.05200000      -0.12680000       2.35460000
