17
Properties=species:S:1:pos:R:3 gdb_15077=T pbc="F F F"
O        0.05470000       1.38660000       0.01400000
C        0.05380000      -0.03250000       0.00430000
C       -1.40560000      -0.47320000       0.09450000
C       -2.18400000       0.07590000      -1.09860000
O       -3.38660000       0.09470000      -1.17320000
C       -1.52100000      -1.99140000       0.21710000
C       -2.79400000      -2.71730000       0.00690000
N       -1.68080000      -2.88060000      -0.94950000
H        0.95160000       1.69640000      -0.14240000
H        0.50410000      -0.43030000      -0.91990000
H        0.62230000      -0.44570000       0.85030000
H       -1.84470000      -0.02000000       0.99290000
H       -1.55710000       0.45740000      -1.93450000
H       -0.83120000      -2.39890000       0.95500000
H       -3.01290000      -3.59780000       0.60420000
H       -3.65700000      -2.13520000      -0.30020000
H       -1.87990000      -2.33790000      -1.78750000
