23
Properties=species:S:1:pos:R:3 gdb_118782=T pbc="F F F"
C       -0.20020000       1.34600000      -0.06390000
O       -0.22500000      -0.05490000      -0.17640000
C        0.81510000      -0.55820000      -0.99430000
C        0.73860000      -2.06940000      -0.99290000
C        0.91840000      -2.67550000       0.38820000
C       -0.24990000      -2.72670000      -1.94660000
C        1.23660000      -2.84300000      -2.19570000
C        1.88030000      -2.19300000      -3.40280000
O        1.84860000      -4.06770000      -1.86340000
H        0.74060000       1.70600000       0.38330000
H       -0.32090000       1.83910000      -1.04240000
H       -1.03190000       1.63860000       0.58190000
H        0.71700000      -0.14560000      -2.01010000
H        1.79350000      -0.22690000      -0.60250000
H        0.15190000      -2.28830000       1.06460000
H        0.85620000      -3.76310000       0.35580000
H        1.89850000      -2.41100000       0.80300000
H       -0.76480000      -3.61380000      -1.59320000
H       -0.83880000      -2.08650000      -2.59610000
H        1.39970000      -1.25320000      -3.68270000
H        2.94310000      -2.00300000      -3.22080000
H        1.80600000      -2.86390000      -4.26810000
H        1.63460000      -4.69730000      -2.56060000
