20
Properties=species:S:1:pos:R:3 gdb_66227=T pbc="F F F"
C        0.21040000       1.59730000      -0.51080000
C       -0.08470000       0.14770000      -0.17680000
C       -1.40680000      -0.36200000      -0.69060000
O       -1.38360000      -0.33020000      -2.12000000
C       -2.58270000      -0.73330000      -2.71890000
C       -3.69210000       0.22160000      -2.50700000
N       -4.55370000       0.97120000      -2.33220000
C        1.06070000      -0.83450000      -0.12170000
C        0.37700000      -0.40260000       1.15240000
H        1.18820000       1.89780000      -0.12280000
H        0.21030000       1.75350000      -1.59350000
H       -0.54290000       2.26420000      -0.07510000
H       -1.58780000      -1.39390000      -0.35020000
H       -2.23270000       0.26490000      -0.32070000
H       -2.39510000      -0.81420000      -3.79400000
H       -2.91270000      -1.72160000      -2.36000000
H        0.88960000      -1.84470000      -0.47810000
H        2.05780000      -0.45770000      -0.32130000
H        0.90500000       0.27340000       1.81610000
H       -0.25300000      -1.12180000       1.66560000
