20
Properties=species:S:1:pos:R:3 gdb_85171=T pbc="F F F"
C       -0.14320000       1.53270000      -0.04040000
C        0.02660000       0.02380000       0.05220000
N        1.03920000      -0.55340000      -0.84360000
C        1.82370000      -1.10720000       0.13840000
O        2.83880000      -1.75020000       0.10820000
C        0.86820000      -0.57240000       1.24280000
C        1.45590000       0.34180000       2.28110000
C        0.70550000       0.62590000       3.56310000
C        1.94310000      -0.23290000       3.58770000
H        0.81910000       2.04680000       0.02810000
H       -0.60750000       1.81140000      -0.99250000
H       -0.78900000       1.89520000       0.76540000
H       -0.94900000      -0.46780000      -0.05060000
H        1.08540000      -0.62660000      -1.84970000
H        0.34270000      -1.40120000       1.72870000
H        2.04670000       1.16260000       1.88590000
H        0.76130000       1.62570000       3.97900000
H       -0.25380000       0.13920000       3.70700000
H        1.82320000      -1.29910000       3.74620000
H        2.84920000       0.17800000       4.01760000
