16
Properties=species:S:1:pos:R:3 gdb_125431=T pbc="F F F"
C       -0.09590000       1.45450000      -0.25350000
C       -0.04900000      -0.02030000      -0.07580000
N       -0.98860000      -0.88810000      -0.30030000
C       -0.37180000      -2.07210000       0.04460000
N        0.87250000      -1.95420000       0.44600000
O        1.08820000      -0.56370000       0.37450000
N       -1.05210000      -3.27350000       0.03660000
C       -1.46480000      -3.86740000      -1.23260000
C       -0.37850000      -4.48350000      -0.41430000
H        0.67650000       1.78320000      -0.95520000
H       -1.07650000       1.74020000      -0.63330000
H        0.08530000       1.96150000       0.69900000
H       -2.46170000      -4.29600000      -1.23540000
H       -1.17890000      -3.35080000      -2.14460000
H        0.64340000      -4.38060000      -0.76710000
H       -0.57920000      -5.36950000       0.17940000
