23
Properties=species:S:1:pos:R:3 gdb_41776=T pbc="F F F"
C        0.09500000       1.64250000       0.25940000
C        1.51220000       1.59210000      -0.36910000
C        1.20840000       0.15030000      -0.87800000
C        2.30180000      -0.87080000      -0.76320000
C        2.13090000      -2.14170000      -0.39640000
C        0.78080000      -2.73910000      -0.07150000
C        0.15500000      -2.20660000       1.23880000
C        0.23490000      -0.67640000       1.39850000
C       -0.02120000       0.09910000       0.10560000
H        0.01770000       2.03670000       1.27690000
H       -0.61950000       2.17850000      -0.37150000
H        1.75540000       2.34440000      -1.12340000
H        2.30290000       1.59710000       0.38690000
H        0.85070000       0.20200000      -1.91530000
H        3.30540000      -0.51360000      -0.99210000
H        2.99990000      -2.79140000      -0.32360000
H        0.08970000      -2.52850000      -0.89710000
H        0.85420000      -3.82990000      -0.01470000
H       -0.89410000      -2.52650000       1.26550000
H        0.64140000      -2.67860000       2.10070000
H       -0.48800000      -0.35680000       2.16000000
H        1.22290000      -0.40140000       1.78600000
H       -0.95460000      -0.24510000      -0.35270000
