19
Properties=species:S:1:pos:R:3 gdb_95427=T pbc="F F F"
C       -0.07320000       1.71830000      -0.02210000
C        0.14950000       0.21020000       0.15320000
C        0.67030000      -0.47630000      -1.12320000
C        2.18210000      -0.25580000      -1.29690000
N        2.95960000      -0.65330000      -0.12980000
C        2.35320000      -0.52850000       0.99680000
N        1.09220000      -0.07520000       1.22940000
C        3.11510000      -0.92240000       2.22210000
O        2.65180000      -0.86370000       3.33670000
H        0.84350000       2.21800000      -0.35010000
H       -0.85520000       1.90430000      -0.76600000
H       -0.38430000       2.17740000       0.92130000
H       -0.81170000      -0.24470000       0.42430000
H        0.48000000      -1.55290000      -1.05280000
H        0.12280000      -0.10400000      -1.99430000
H        2.54790000      -0.81310000      -2.16570000
H        2.38790000       0.80440000      -1.51020000
H        0.78910000      -0.10010000       2.19160000
H        4.14070000      -1.27390000       2.00330000
