18
Properties=species:S:1:pos:R:3 gdb_65732=T pbc="F F F"
O       -0.02600000       1.36490000      -0.08020000
C        0.00920000      -0.03680000      -0.00900000
C        0.95290000      -0.53960000      -1.10220000
C        2.36950000      -0.05910000      -0.86210000
O        3.27730000      -0.78210000      -0.53520000
C        0.27630000      -0.67070000       1.42260000
C       -1.12780000      -1.26770000       1.36720000
N       -2.05000000      -0.11560000       1.18250000
C       -1.37490000      -0.72030000       0.00800000
H       -0.74210000       1.63070000       0.51470000
H        0.95280000      -1.63230000      -1.13280000
H        0.59850000      -0.14510000      -2.06280000
H        2.51830000       1.03370000      -0.98720000
H        1.07480000      -1.41520000       1.40190000
H        0.45740000       0.04770000       2.22540000
H       -1.48290000      -2.18940000       1.80980000
H       -3.00600000      -0.46680000       1.20300000
H       -1.94470000      -1.10660000      -0.82910000
