15
Properties=species:S:1:pos:R:3 gdb_4915=T pbc="F F F"
C       -0.87780000       0.91790000      -0.04100000
C        0.55810000       0.38900000      -0.06400000
C        1.01720000      -0.18130000       1.23820000
C        0.36360000      -0.29810000       2.41600000
O        1.22720000      -0.89850000       3.32420000
C        2.34980000      -1.09660000       2.60260000
O        3.37840000      -1.67100000       3.22430000
N        2.31100000      -0.70670000       1.37680000
H       -0.99450000       1.71820000       0.69720000
H       -1.15700000       1.32140000      -1.01800000
H       -1.58950000       0.12410000       0.20890000
H        0.66490000      -0.38290000      -0.83680000
H        1.25140000       1.18840000      -0.35550000
H       -0.61350000      -0.04670000       2.78570000
H        3.11980000      -1.85320000       4.13570000
