22
Properties=species:S:1:pos:R:3 gdb_122702=T pbc="F F F"
C        0.03060000       1.47520000      -0.14300000
C       -0.03000000      -0.03500000       0.09910000
C       -1.44150000      -0.58280000      -0.04220000
O       -1.39800000      -1.98990000       0.20040000
C       -2.57320000      -2.64190000       0.10250000
N       -2.63590000      -3.88450000       0.30110000
C       -3.90290000      -4.51640000       0.18180000
C       -3.92660000      -5.92690000      -0.36140000
C       -4.18670000      -5.68210000       1.10130000
H        1.05370000       1.84590000      -0.03630000
H       -0.31220000       1.73350000      -1.15100000
H       -0.59600000       2.02100000       0.57100000
H        0.62040000      -0.56190000      -0.60790000
H        0.33840000      -0.27640000       1.10230000
H       -2.11760000      -0.09920000       0.67790000
H       -1.83220000      -0.38840000      -1.05170000
H       -3.43170000      -2.00410000      -0.15810000
H       -4.75300000      -3.87960000      -0.07600000
H       -4.75650000      -6.21200000      -0.99850000
H       -2.96850000      -6.35060000      -0.63730000
H       -3.40230000      -5.94260000       1.80170000
H       -5.19690000      -5.79730000       1.47820000
