16
Properties=species:S:1:pos:R:3 gdb_5760=T pbc="F F F"
C        0.88840000       1.47420000       0.31400000
C        0.94090000       0.28230000      -0.59370000
C       -0.26720000       0.49210000       0.29880000
C       -0.46890000      -0.39760000       1.45540000
N        0.47600000      -0.92700000       2.20570000
C       -0.17670000      -1.67890000       3.15570000
C       -1.53120000      -1.60710000       2.98280000
N       -1.70620000      -0.78210000       1.88880000
H        1.51250000       1.45590000       1.19970000
H        0.72330000       2.45440000      -0.11960000
H        0.81280000       0.43140000      -1.66010000
H        1.60000000      -0.53080000      -0.31310000
H       -1.18180000       0.82060000      -0.18540000
H        0.36810000      -2.22810000       3.90860000
H       -2.36380000      -2.04390000       3.50800000
H       -2.58680000      -0.51270000       1.48380000
