17
Properties=species:S:1:pos:R:3 gdb_111038=T pbc="F F F"
O       -0.04120000       1.43570000      -0.17630000
C        0.10950000       0.06500000       0.14610000
C       -1.25290000      -0.60310000       0.12870000
N       -1.97210000      -0.66540000      -1.24410000
C       -1.10950000      -1.90720000      -1.53150000
C       -1.51770000      -2.12810000      -0.05370000
C       -2.91350000      -1.65830000      -0.54310000
C       -1.18490000      -3.22380000       0.83340000
N       -0.91520000      -4.09420000       1.54500000
H       -0.54570000       1.47640000      -0.99790000
H        0.83700000      -0.42720000      -0.51350000
H        0.51720000       0.02220000       1.16170000
H       -1.88850000      -0.11580000       0.87420000
H       -1.55030000      -2.57640000      -2.27280000
H       -0.06620000      -1.70080000      -1.76180000
H       -3.57930000      -1.19790000       0.18920000
H       -3.45000000      -2.31380000      -1.23160000
