19
Properties=species:S:1:pos:R:3 gdb_68674=T pbc="F F F"
C       -0.01560000       1.58660000       0.03180000
C        0.02850000       0.07390000      -0.04320000
C        0.69870000      -0.67060000      -1.25230000
C       -0.33920000      -1.81300000      -1.03910000
O        0.02160000      -2.69730000       0.02000000
C        0.85180000      -2.09150000       1.01170000
C        0.51170000      -0.60940000       1.26770000
C       -1.24200000      -0.69810000      -0.45550000
O       -2.41190000      -0.44870000      -0.44990000
H        0.98130000       2.00420000       0.21050000
H       -0.40540000       2.01510000      -0.89650000
H       -0.66910000       1.91340000       0.84740000
H        0.51770000      -0.15270000      -2.19790000
H        1.75610000      -0.92810000      -1.17360000
H       -0.67900000      -2.42080000      -1.87830000
H        0.72570000      -2.69090000       1.91720000
H        1.90420000      -2.17990000       0.70860000
H        1.40350000      -0.09510000       1.64700000
H       -0.26730000      -0.50720000       2.03120000
