16
Properties=species:S:1:pos:R:3 gdb_5740=T pbc="F F F"
N        0.01600000       1.48660000      -0.05950000
C       -0.03940000       0.07900000      -0.07770000
C       -1.08910000      -0.82260000       0.03530000
C       -0.59540000      -2.15910000      -0.16570000
C        0.75710000      -2.01690000      -0.33990000
C        2.14490000      -2.40240000      -0.82930000
C        2.42910000      -0.85130000      -0.83430000
N        1.07660000      -0.68400000      -0.27510000
H        0.52510000       1.84320000       0.74440000
H       -0.91910000       1.87400000      -0.02900000
H       -2.10700000      -0.55340000       0.27920000
H       -1.18110000      -3.06500000      -0.16440000
H        2.76750000      -2.97700000      -0.13740000
H        2.19350000      -2.86830000      -1.81700000
H        3.23270000      -0.49910000      -0.18120000
H        2.54550000      -0.41330000      -1.82960000
