19
Properties=species:S:1:pos:R:3 gdb_50832=T pbc="F F F"
O        0.91030000      -0.20980000      -0.45950000
C        0.47230000       0.90330000      -0.33830000
C        1.30340000       2.09920000       0.10210000
C        1.02630000       3.31360000      -0.79150000
O       -0.10990000       3.69600000      -0.96160000
C        2.21820000       3.93100000      -1.47690000
C        2.78020000       3.13360000      -2.71030000
C        2.93710000       4.48990000      -3.44980000
C        1.99210000       5.14580000      -2.40750000
H       -0.58940000       1.14880000      -0.54720000
H        0.96520000       2.37100000       1.11130000
H        2.35750000       1.81850000       0.14440000
H        3.01480000       4.09770000      -0.74380000
H        3.67470000       2.52950000      -2.54820000
H        2.00950000       2.50520000      -3.16550000
H        3.95860000       4.87270000      -3.37620000
H        2.62990000       4.52070000      -4.49710000
H        0.95190000       5.17820000      -2.73920000
H        2.26890000       6.12780000      -2.01910000
