15
Properties=species:S:1:pos:R:3 gdb_85510=T pbc="F F F"
C       -0.17380000       1.57470000      -0.01950000
C        0.08820000       0.07980000      -0.03110000
O        1.08490000      -0.23380000      -1.01320000
C        1.87140000      -1.25210000      -0.57660000
O        2.68280000      -1.81840000      -1.22950000
O        1.57850000      -1.54030000       0.72390000
C        0.70120000      -0.55800000       1.24850000
C        1.46640000       0.43940000       2.11720000
O        2.65810000       0.57020000       2.09170000
H        0.74050000       2.13430000       0.19500000
H       -0.54630000       1.88910000      -0.99720000
H       -0.93120000       1.82630000       0.72950000
H       -0.82760000      -0.46260000      -0.29610000
H       -0.06380000      -1.04800000       1.85930000
H        0.81620000       1.05280000       2.78040000
