21
Properties=species:S:1:pos:R:3 gdb_47091=T pbc="F F F"
O       -0.08940000       0.14000000       0.53970000
C       -0.07280000       1.32150000       0.30510000
C       -1.28590000       2.25860000       0.37000000
C       -0.78650000       3.62390000      -0.13240000
C        0.74230000       3.60730000       0.09450000
C        1.22150000       3.95070000       1.51920000
C        2.57890000       3.23600000       1.62890000
C        2.38290000       1.89250000       0.88080000
C        1.17780000       2.13320000      -0.06660000
H       -2.12240000       1.84340000      -0.19820000
H       -1.61240000       2.29290000       1.41630000
H       -0.99830000       3.72800000      -1.20210000
H       -1.27040000       4.46580000       0.37100000
H        1.25270000       4.26090000      -0.62000000
H        1.28160000       5.02800000       1.69930000
H        0.52170000       3.53940000       2.25950000
H        3.34650000       3.83460000       1.12460000
H        2.90810000       3.09930000       2.66280000
H        3.28170000       1.60010000       0.33280000
H        2.15470000       1.07150000       1.56740000
H        1.41510000       1.87760000      -1.10600000
