13
Properties=species:S:1:pos:R:3 gdb_10017=T pbc="F F F"
N       -0.28970000       1.37760000      -0.19740000
C       -0.52700000       0.05210000      -0.37860000
N       -0.40800000      -0.79120000       0.57300000
C       -0.75320000      -2.18170000       0.35550000
C       -1.79930000      -2.58860000       1.41760000
O       -2.70110000      -3.35450000       1.23560000
C       -1.19160000      -2.54970000      -1.00000000
N       -1.50610000      -2.75930000      -2.09190000
H       -0.15630000       1.96700000      -1.00010000
H        0.14120000       1.66730000       0.66640000
H       -0.84950000      -0.20600000      -1.39310000
H        0.13340000      -2.79600000       0.58900000
H       -1.61030000      -2.08350000       2.38680000
