19
Properties=species:S:1:pos:R:3 gdb_71631=T pbc="F F F"
C        0.04100000       1.46630000      -0.08050000
C       -0.00690000      -0.02460000       0.01600000
O        0.64070000      -0.83520000      -1.04330000
C        0.09710000      -1.83110000      -0.10900000
C        0.60730000      -0.97660000       1.08670000
C       -0.13430000      -1.08490000       2.41810000
C       -1.53390000      -1.65030000       2.15970000
O       -2.12240000      -1.09460000       0.98770000
C       -1.22270000      -1.00020000      -0.07930000
H        1.07230000       1.83020000      -0.03650000
H       -0.40790000       1.80350000      -1.01980000
H       -0.52080000       1.91220000       0.74670000
H        0.27020000      -2.88090000      -0.34700000
H        1.69550000      -0.91180000       1.16050000
H        0.39900000      -1.74120000       3.11460000
H       -0.19070000      -0.09620000       2.89020000
H       -1.46540000      -2.74330000       2.04350000
H       -2.22410000      -1.44350000       2.98150000
H       -1.77680000      -0.95760000      -1.01850000
