17
Properties=species:S:1:pos:R:3 gdb_122786=T pbc="F F F"
O        0.26210000       0.29580000      -0.07490000
C       -0.57140000      -0.85620000      -0.15250000
C       -2.00810000      -0.36270000      -0.18960000
N       -2.20710000       0.46790000      -1.37260000
C       -3.50250000       1.09590000      -1.46750000
C       -4.55620000       0.14900000      -2.02700000
O       -5.72930000       0.19440000      -1.76330000
C       -4.05120000      -0.86620000      -2.98440000
N       -3.73590000      -1.67430000      -3.74930000
H        1.16810000       0.03090000      -0.25580000
H       -0.36510000      -1.43500000      -1.06320000
H       -0.42930000      -1.51280000       0.71840000
H       -2.67960000      -1.22930000      -0.23050000
H       -2.22740000       0.17930000       0.74760000
H       -1.45980000       1.14970000      -1.41600000
H       -3.90830000       1.50400000      -0.52660000
H       -3.44450000       1.92910000      -2.18140000
