21
Properties=species:S:1:pos:R:3 gdb_110007=T pbc="F F F"
C        0.02980000       1.48850000      -0.05900000
C        0.05680000      -0.00800000      -0.04350000
C       -0.06320000      -0.82090000      -1.09920000
C       -0.07400000      -2.27930000      -0.70610000
C        0.51720000      -2.24060000       0.72100000
O        1.92770000      -2.44840000       0.70020000
C        0.14840000      -0.82500000       1.24190000
C        1.10000000      -0.30890000       2.31860000
O        0.51300000       0.84990000       2.90110000
H        0.92980000       1.91480000       0.39680000
H       -0.05930000       1.87130000      -1.07980000
H       -0.81020000       1.86940000       0.53310000
H       -0.19280000      -0.48370000      -2.12270000
H       -1.09680000      -2.68290000      -0.70550000
H        0.52300000      -2.93180000      -1.35280000
H        0.12860000      -3.03160000       1.36770000
H        2.29250000      -1.83630000       0.05010000
H       -0.84900000      -0.86130000       1.70710000
H        1.25530000      -1.09670000       3.07080000
H        2.08350000      -0.08080000       1.88400000
H        1.13080000       1.20450000       3.54700000
