20
Properties=species:S:1:pos:R:3 gdb_57259=T pbc="F F F"
C       -0.22080000       1.53390000      -0.11410000
C        0.01950000       0.01270000      -0.00860000
N        0.72790000      -0.25400000       1.25150000
C       -1.30870000      -0.63520000       0.10030000
N       -2.34750000      -1.13880000       0.15730000
C        0.74910000      -0.53490000      -1.26600000
C        2.08350000       0.12090000      -1.56920000
C        0.55780000      -1.96330000      -1.63550000
N       -0.02110000      -0.88880000      -2.46700000
H        0.73560000       2.06300000      -0.11980000
H       -0.75700000       1.77990000      -1.03340000
H       -0.80070000       1.87850000       0.74390000
H        1.01320000      -1.22840000       1.29110000
H        1.57190000       0.30850000       1.29060000
H        2.76890000       0.05800000      -0.71750000
H        2.54990000      -0.38440000      -2.41730000
H        1.96450000       1.17380000      -1.84110000
H        1.37730000      -2.50900000      -2.09510000
H       -0.12090000      -2.57310000      -1.04560000
H       -1.02200000      -0.83320000      -2.28600000
