20
Properties=species:S:1:pos:R:3 gdb_52406=T pbc="F F F"
N       -0.13850000       1.26340000       0.31130000
C       -0.08350000       0.00500000       0.22900000
O       -1.20310000      -0.70720000       0.00640000
C       -1.03980000      -2.11260000      -0.19080000
C       -2.41010000      -2.76430000      -0.09150000
C       -2.35500000      -4.27770000      -0.33650000
C       -3.71520000      -4.92000000      -0.20870000
C       -3.90310000      -6.26440000       0.34810000
O       -4.20790000      -5.10210000       1.12170000
H        0.78850000       1.63830000       0.50160000
H        0.81860000      -0.61540000       0.33280000
H       -0.59190000      -2.29700000      -1.17780000
H       -0.35980000      -2.52330000       0.56910000
H       -2.82930000      -2.56700000       0.90060000
H       -3.07720000      -2.28750000      -0.81920000
H       -1.95830000      -4.48350000      -1.34010000
H       -1.67500000      -4.75190000       0.38160000
H       -4.46990000      -4.55300000      -0.90780000
H       -4.76010000      -6.86430000       0.04520000
H       -3.03490000      -6.83240000       0.68080000
