20
Properties=species:S:1:pos:R:3 gdb_33078=T pbc="F F F"
C       -0.00100000       1.58260000       0.06790000
C       -0.00500000       0.05410000       0.14240000
C       -1.39240000      -0.55410000      -0.13500000
C       -1.41690000      -2.05070000      -0.05420000
C       -1.61350000      -2.92200000      -1.07390000
O       -1.55040000      -4.22190000      -0.61840000
C       -1.31340000      -4.15620000       0.71120000
N       -1.14350000      -5.38110000       1.34340000
C       -1.22090000      -2.86120000       1.12520000
H        0.99550000       1.98930000       0.26680000
H       -0.31120000       1.93210000      -0.92340000
H       -0.69060000       2.01780000       0.80030000
H        0.71210000      -0.35860000      -0.57740000
H        0.33930000      -0.27010000       1.13210000
H       -2.11200000      -0.13260000       0.58080000
H       -1.73120000      -0.23860000      -1.12950000
H       -1.80970000      -2.80870000      -2.12640000
H       -1.70670000      -6.11220000       0.92700000
H       -1.30670000      -5.33010000       2.33940000
H       -1.04220000      -2.51850000       2.13220000
