17
Properties=species:S:1:pos:R:3 gdb_82676=T pbc="F F F"
C        0.03370000       1.59960000      -0.06330000
C        0.08090000       0.08370000       0.01040000
C        1.12150000      -0.70860000      -0.83110000
N        2.42770000      -0.08290000      -0.40830000
C        2.22720000      -0.80550000       0.86240000
C        1.22530000      -1.77740000       0.33400000
C        0.72850000      -0.62390000       1.21460000
C        0.25430000      -0.68600000       2.55480000
N       -0.14420000      -0.72910000       3.64130000
H        1.03560000       2.02260000       0.02970000
H       -0.39200000       1.92500000      -1.01900000
H       -0.59640000       2.00370000       0.73580000
H       -0.90850000      -0.35690000      -0.14800000
H        0.97670000      -0.89460000      -1.89230000
H        3.17180000      -0.57010000      -0.90690000
H        2.97890000      -0.89930000       1.63520000
H        1.06230000      -2.84170000       0.43630000
