13
Properties=species:S:1:pos:R:3 gdb_20505=T pbc="F F F"
C       -0.00700000       1.43300000       0.00980000
C        0.00800000      -0.02030000       0.00220000
C        0.02150000      -1.22470000      -0.00410000
C        0.02140000      -2.64190000      -0.01140000
N        1.14700000      -3.35770000      -0.02160000
N        0.67630000      -4.62280000      -0.02540000
C       -0.67280000      -4.62800000      -0.01760000
N       -1.12870000      -3.39510000      -0.00850000
H        1.01070000       1.83740000       0.00190000
H       -0.53120000       1.82770000      -0.86760000
H       -0.51390000       1.81870000       0.90130000
H        1.32280000      -5.39470000      -0.03310000
H       -1.26260000      -5.53250000      -0.01870000
