16
Properties=species:S:1:pos:R:3 gdb_36061=T pbc="F F F"
N       -0.03490000      -1.00240000       0.59360000
C        0.00760000       0.11870000       0.31740000
C        0.09920000       1.54390000       0.01190000
C        1.57000000       2.00820000      -0.18910000
C        1.73000000       3.54770000       0.03250000
C        2.26740000       3.17980000       1.43850000
N        2.46300000       1.79400000       0.96010000
C        2.08830000       1.47760000      -1.45850000
N        2.48260000       1.08960000      -2.47280000
H       -0.49240000       1.76810000      -0.88190000
H       -0.33690000       2.10580000       0.84470000
H        2.48940000       3.97870000      -0.61860000
H        0.81400000       4.13580000      -0.02890000
H        3.18880000       3.67270000       1.75900000
H        1.51430000       3.29600000       2.22910000
H        2.23000000       1.02300000       1.57710000
