17
Properties=species:S:1:pos:R:3 gdb_58162=T pbc="F F F"
C        0.06650000       1.52090000      -0.08670000
C        0.01740000      -0.00100000      -0.00650000
O        0.77290000      -0.51360000       1.07610000
C       -1.45380000      -0.50900000       0.06640000
O       -2.23300000      -0.02380000      -1.01920000
C       -1.49770000      -1.96600000       0.16390000
C       -1.53820000      -3.17370000       0.15590000
C       -1.56590000      -4.61300000       0.19790000
O       -1.95400000      -5.31620000      -0.70670000
H        1.10140000       1.85720000      -0.18870000
H       -0.51730000       1.88400000      -0.93490000
H       -0.35330000       1.96770000       0.82430000
H        0.47080000      -0.43570000      -0.90560000
H        0.53620000      -0.01750000       1.86790000
H       -1.90860000      -0.07690000       0.96900000
H       -2.06840000      -0.59400000      -1.77860000
H       -1.19270000      -5.04360000       1.14900000
