23
Properties=species:S:1:pos:R:3 gdb_96094=T pbc="F F F"
C        0.00280000       1.56740000       0.02510000
C        0.01720000       0.03680000      -0.01790000
C        0.69700000      -0.49420000      -1.29220000
C        0.72400000      -2.02870000      -1.33870000
C        1.39810000      -2.61520000      -0.08730000
C        0.75100000      -2.07080000       1.17070000
C       -0.23570000      -2.87690000       1.90620000
O        1.10240000      -2.73110000       2.39230000
C        0.69710000      -0.55660000       1.23170000
H        1.02300000       1.96880000       0.03600000
H       -0.50890000       1.98390000      -0.84900000
H       -0.50840000       1.93660000       0.92060000
H       -1.02570000      -0.31480000      -0.02700000
H        0.18560000      -0.09890000      -2.17780000
H        1.72710000      -0.11050000      -1.33170000
H       -0.30460000      -2.40750000      -1.40710000
H        1.24350000      -2.37320000      -2.23950000
H        1.35610000      -3.70870000      -0.08710000
H        2.46100000      -2.33670000      -0.07890000
H       -1.00450000      -2.38490000       2.50160000
H       -0.49710000      -3.87360000       1.55120000
H        1.72550000      -0.17280000       1.29760000
H        0.18290000      -0.23890000       2.14490000
