17
Properties=species:S:1:pos:R:3 gdb_52026=T pbc="F F F"
O       -0.69790000       0.73890000       0.60280000
C        0.17220000       0.92180000      -0.20740000
C        1.31110000       1.90530000      -0.05080000
C        1.35420000       2.90460000      -1.21780000
C        2.63570000       3.79210000      -1.21000000
C        3.83890000       2.91700000      -1.57860000
O        4.52820000       2.35540000      -0.77030000
C        2.52130000       4.90440000      -2.14350000
C        2.44520000       5.79600000      -2.94580000
H        0.19110000       0.35160000      -1.16670000
H        1.20270000       2.41770000       0.90920000
H        2.24660000       1.33010000      -0.02290000
H        1.29510000       2.37780000      -2.17900000
H        0.48550000       3.56830000      -1.17610000
H        2.80240000       4.15960000      -0.19100000
H        4.00360000       2.80730000      -2.67280000
H        2.37440000       6.59820000      -3.63860000
