19
Properties=species:S:1:pos:R:3 gdb_100470=T pbc="F F F"
C       -0.03420000       1.60710000       0.20700000
C       -0.01170000       0.07400000       0.05180000
C        0.75570000      -0.60030000       1.20280000
O        2.09380000      -0.13340000       1.15190000
C       -1.36010000      -0.48050000      -0.03940000
C       -2.47180000      -0.94320000      -0.09250000
C       -3.80980000      -1.46650000      -0.14420000
C       -4.22150000      -2.46150000      -1.15480000
O       -3.99700000      -2.85310000       0.19280000
H        0.98790000       1.98140000       0.28960000
H       -0.51890000       2.07740000      -0.65220000
H       -0.58650000       1.89320000       1.10770000
H        0.53400000      -0.17050000      -0.86990000
H        0.27120000      -0.34490000       2.15780000
H        0.70420000      -1.69190000       1.08230000
H        2.57470000      -0.51310000       1.89260000
H       -4.58380000      -0.81430000       0.25950000
H       -5.25860000      -2.48140000      -1.48800000
H       -3.48570000      -2.81210000      -1.87600000
