22
Properties=species:S:1:pos:R:3 gdb_14797=T pbc="F F F"
C        0.03070000       1.51910000       0.10190000
C        0.02880000       0.00110000       0.03770000
O        0.69860000      -0.49920000       1.17560000
C        0.75500000      -1.90720000       1.21640000
C        1.49570000      -2.32450000       2.47970000
C        1.60910000      -3.83650000       2.61520000
O        2.30560000      -4.12750000       3.80670000
C        2.46370000      -5.50740000       4.02480000
H        1.05550000       1.90070000       0.11910000
H       -0.48260000       1.93910000      -0.76830000
H       -0.47780000       1.86510000       1.00630000
H       -1.00530000      -0.38360000       0.00450000
H        0.52830000      -0.34800000      -0.88260000
H       -0.26460000      -2.33230000       1.20710000
H        1.26920000      -2.29660000       0.31960000
H        2.49900000      -1.88600000       2.47240000
H        0.97500000      -1.92120000       3.35440000
H        0.60680000      -4.30070000       2.63490000
H        2.14090000      -4.26530000       1.74690000
H        1.49360000      -6.02390000       4.10800000
H        3.03640000      -5.98820000       3.21510000
H        3.00970000      -5.63110000       4.96330000
