22
Properties=species:S:1:pos:R:3 gdb_11827=T pbc="F F F"
C        0.75550000       1.48580000      -0.23690000
C       -0.01640000       0.19300000       0.00900000
C        0.37260000      -0.96410000      -0.96470000
C        1.18040000      -1.59990000       0.17240000
C        1.63200000      -3.02000000       0.31780000
C        2.64890000      -1.91750000       0.11750000
C        0.48380000      -0.69490000       1.20540000
C        1.28430000      -0.07860000       2.34340000
H        1.83200000       1.30280000      -0.32190000
H        0.42760000       1.95350000      -1.17190000
H        0.60190000       2.21110000       0.56940000
H       -1.08760000       0.41320000       0.04510000
H       -0.48630000      -1.57160000      -1.26850000
H        0.92700000      -0.67280000      -1.86260000
H        1.57090000      -3.48040000       1.29960000
H        1.44770000      -3.70460000      -0.50450000
H        3.14920000      -1.85050000      -0.84380000
H        3.27360000      -1.64360000       0.96180000
H       -0.37620000      -1.23010000       1.62780000
H        2.15870000       0.47010000       1.98110000
H        0.66950000       0.61690000       2.92550000
H        1.64170000      -0.85180000       3.03360000
