17
Properties=species:S:1:pos:R:3 gdb_34934=T pbc="F F F"
N       -0.13820000      -1.17550000       0.06880000
C       -0.03710000      -0.02310000       0.06720000
C        0.05390000       1.41500000       0.05840000
C        0.56930000       2.18700000       1.22000000
C        1.63920000       1.41960000       1.99450000
C        2.37430000       1.33490000       0.65040000
C        3.82450000       1.55590000       0.37670000
C        3.16470000       0.24030000       0.01280000
N        1.34930000       2.14390000      -0.07440000
H       -0.72650000       1.89370000      -0.52590000
H        0.06110000       3.08690000       1.54990000
H        2.15720000       2.04110000       2.72740000
H        1.32060000       0.48650000       2.46640000
H        4.07280000       2.23620000      -0.43060000
H        4.50450000       1.58010000       1.22190000
H        3.38610000      -0.63870000       0.60820000
H        2.98240000       0.03820000      -1.03690000
