21
Properties=species:S:1:pos:R:3 gdb_104256=T pbc="F F F"
C        0.18950000       1.58260000       0.15270000
C        0.34970000       0.05890000       0.10310000
C        0.70040000      -0.48120000      -1.28550000
O       -0.29370000      -0.17320000      -2.24180000
C        2.18140000      -0.22540000      -1.71580000
C        2.53370000      -1.67060000      -1.28310000
C        1.01180000      -2.01800000      -1.31480000
C        0.46010000      -2.89470000      -0.30420000
C        0.01740000      -3.61560000       0.55140000
H        1.09110000       2.10150000      -0.19090000
H       -0.65240000       1.92490000      -0.46070000
H       -0.01290000       1.91610000       1.17450000
H        1.12860000      -0.25030000       0.80970000
H       -0.57590000      -0.42480000       0.43330000
H       -0.44700000       0.77740000      -2.22740000
H        2.23870000      -0.09430000      -2.79910000
H        2.71730000       0.59090000      -1.22600000
H        3.17630000      -2.25540000      -1.94290000
H        2.93350000      -1.72060000      -0.26820000
H        0.73600000      -2.37260000      -2.31310000
H       -0.37810000      -4.25820000       1.29830000
