14
Properties=species:S:1:pos:R:3 gdb_2999=T pbc="F F F"
C       -0.04870000       1.43840000       0.18540000
N       -0.40550000       0.08660000       0.56260000
C       -1.09300000      -0.74640000      -0.25930000
O       -1.46270000      -0.48050000      -1.38950000
C       -1.36270000      -2.10780000       0.34030000
C       -0.25030000      -2.99760000       0.71300000
O       -1.00700000      -2.31210000       1.71230000
H        1.03090000       1.60200000       0.27210000
H       -0.35020000       1.57860000      -0.85360000
H       -0.56490000       2.17800000       0.80790000
H       -0.25100000      -0.24060000       1.50440000
H       -2.30500000      -2.54800000       0.02330000
H       -0.39390000      -4.07560000       0.67760000
H        0.77290000      -2.65090000       0.58230000
