18
Properties=species:S:1:pos:R:3 gdb_40347=T pbc="F F F"
C       -0.39060000       1.25730000      -0.32190000
O        0.81550000       1.38260000       0.43510000
C        0.31150000       0.06500000       0.17290000
C       -0.18800000      -0.69120000       1.32830000
C        0.44900000      -1.44260000       2.46810000
C       -0.32460000      -0.55730000       3.42970000
N       -1.29620000      -0.23320000       2.31040000
C       -1.94820000      -1.58400000       2.07830000
C       -0.61570000      -2.11250000       1.57720000
H       -1.29350000       1.57650000       0.19410000
H       -0.31600000       1.52940000      -1.37400000
H        0.91660000      -0.51430000      -0.52620000
H        1.45910000      -1.82840000       2.52680000
H       -0.79020000      -0.99430000       4.32020000
H        0.22450000       0.34720000       3.69970000
H       -2.40760000      -2.02490000       2.97010000
H       -2.69410000      -1.49500000       1.28460000
H       -0.38570000      -2.99230000       0.98850000
