19
Properties=species:S:1:pos:R:3 gdb_99690=T pbc="F F F"
C        0.54010000       1.24490000       0.25480000
C        0.28010000      -0.18280000       0.13420000
C        0.07320000      -1.36630000       0.04490000
C       -0.24590000      -2.78370000      -0.08500000
C       -1.77290000      -3.01990000      -0.21680000
O       -2.11060000      -4.38240000      -0.13300000
C        0.52690000      -3.45880000      -1.24080000
C        1.98380000      -3.09670000      -1.41150000
O       -0.01900000      -4.26710000      -1.96170000
H        1.61320000       1.45910000       0.20290000
H        0.05000000       1.80790000      -0.54690000
H        0.17040000       1.63570000       1.20900000
H        0.08280000      -3.31550000       0.82290000
H       -2.27580000      -2.50740000       0.60770000
H       -2.11740000      -2.56120000      -1.15550000
H       -1.70000000      -4.79360000      -0.90530000
H        2.50840000      -3.14310000      -0.45150000
H        2.44860000      -3.76900000      -2.13320000
H        2.06310000      -2.06240000      -1.76030000
