16
Properties=species:S:1:pos:R:3 gdb_55328=T pbc="F F F"
N        0.47800000       0.47680000      -0.68690000
C       -0.30770000       0.31550000       0.41530000
O       -0.18630000       0.97110000       1.43050000
C       -1.40800000      -0.73890000       0.28410000
C       -2.18020000      -0.73320000      -1.06640000
N       -1.26470000      -1.79520000      -1.55560000
C       -0.94020000      -2.16990000      -0.16090000
C        0.43540000      -2.60790000       0.07390000
N        1.51650000      -2.97360000       0.25480000
H        1.28880000       1.06750000      -0.59520000
H        0.43610000      -0.18500000      -1.44790000
H       -1.99720000      -0.70570000       1.19690000
H       -3.22080000      -1.05860000      -0.93980000
H       -2.15480000       0.18840000      -1.65220000
H       -1.66950000      -2.52930000      -2.12720000
H       -1.61480000      -2.92470000       0.26750000
