25
Properties=species:S:1:pos:R:3 gdb_101837=T pbc="F F F"
C        0.11010000       1.41370000       0.28180000
C        0.30540000      -0.09570000       0.10630000
C        0.63600000      -0.53300000      -1.33200000
C        1.96870000       0.03390000      -1.83910000
C        0.62760000      -2.05940000      -1.42310000
O        0.77480000      -2.44460000      -2.78100000
C        0.81340000      -3.82300000      -2.96420000
C        1.53160000      -4.31390000      -4.17760000
C        2.12320000      -4.55380000      -2.80120000
H        1.02560000       1.97220000       0.06520000
H       -0.67430000       1.79010000      -0.38440000
H       -0.18410000       1.65200000       1.30870000
H        1.10240000      -0.44100000       0.77960000
H       -0.60890000      -0.61030000       0.42990000
H       -0.16580000      -0.17360000      -1.99260000
H        2.79120000      -0.25060000      -1.17060000
H        2.19240000      -0.35600000      -2.83450000
H        1.94900000       1.12550000      -1.89790000
H        1.44490000      -2.48570000      -0.81790000
H       -0.31850000      -2.45950000      -1.02200000
H       -0.09660000      -4.34140000      -2.65710000
H        1.11420000      -5.15170000      -4.72450000
H        2.00600000      -3.55830000      -4.79320000
H        2.98500000      -3.95540000      -2.52780000
H        2.11680000      -5.55920000      -2.39460000
