15
Properties=species:S:1:pos:R:3 gdb_133264=T pbc="F F F"
C        0.13630000       1.46090000       0.00680000
N        0.03910000       0.01090000       0.00430000
C       -1.08550000      -0.60690000       0.01110000
C       -1.12580000      -2.06210000       0.00820000
C       -2.29850000      -2.73110000       0.01380000
N       -3.48440000      -2.05550000       0.02190000
N       -3.56480000      -0.71100000       0.02800000
C       -2.46030000      -0.05810000       0.02270000
F       -2.59950000       1.26480000       0.02850000
H        1.19590000       1.73170000      -0.00200000
H       -0.33510000       1.92190000      -0.87080000
H       -0.31930000       1.91770000       0.89480000
H       -0.18160000      -2.58970000       0.00100000
H       -2.37880000      -3.81130000       0.01140000
H       -4.37330000      -2.52420000       0.03020000
