25
Properties=species:S:1:pos:R:3 gdb_122885=T pbc="F F F"
C       -0.02490000       1.44230000       0.12070000
O        0.01100000       0.04030000       0.02870000
C       -1.27340000      -0.54450000       0.02850000
C       -1.12170000      -2.05540000      -0.08260000
C       -2.47300000      -2.77490000      -0.12430000
C       -2.39460000      -4.31630000      -0.02790000
C       -3.81210000      -4.90660000      -0.01640000
C       -1.57380000      -4.92530000      -1.16760000
O       -1.70620000      -4.69950000       1.17060000
H        1.00800000       1.79940000       0.11240000
H       -0.56370000       1.89610000      -0.72720000
H       -0.50950000       1.78110000       1.05090000
H       -1.81600000      -0.27730000       0.95340000
H       -1.87140000      -0.15190000      -0.81390000
H       -0.53870000      -2.27160000      -0.98420000
H       -0.53870000      -2.42260000       0.76770000
H       -3.09580000      -2.42180000       0.71180000
H       -3.01830000      -2.50400000      -1.03800000
H       -4.34580000      -4.68620000      -0.94660000
H       -3.76780000      -5.99210000       0.10980000
H       -4.40140000      -4.48970000       0.80950000
H       -0.53590000      -4.58890000      -1.12180000
H       -1.57700000      -6.01600000      -1.08840000
H       -1.99010000      -4.64560000      -2.14000000
H       -2.23220000      -4.39900000       1.91980000
