16
Properties=species:S:1:pos:R:3 gdb_24018=T pbc="F F F"
C       -0.23490000      -1.25990000      -0.25700000
C       -0.11120000      -0.07020000      -0.13960000
C        0.02970000       1.36720000       0.00470000
C       -0.26680000       1.96770000       1.45070000
N        1.11820000       2.45070000       1.43870000
C        2.16750000       3.14420000       1.97110000
C        3.18050000       3.05050000       1.02670000
C        2.72350000       2.29330000      -0.10020000
C        1.43050000       1.94810000       0.21570000
H       -0.33450000      -2.31170000      -0.36400000
H       -0.54800000       1.88060000      -0.77200000
H       -1.02140000       2.75900000       1.47420000
H       -0.47560000       1.21940000       2.21850000
H        2.13400000       3.62500000       2.93460000
H        4.16500000       3.48140000       1.13510000
H        3.28610000       2.05350000      -0.98790000
