8
Properties=species:S:1:pos:R:3 gdb_787=T pbc="F F F"
O        0.10530000       1.29480000      -0.13640000
C        0.06700000      -0.03490000      -0.06990000
N       -0.03570000      -0.80190000      -1.14600000
N       -0.03270000      -2.00440000      -0.56720000
N        0.06240000      -1.99910000       0.74630000
N        0.12830000      -0.73390000       1.08960000
H        0.18120000       1.62330000       0.76850000
H       -0.09870000      -2.85990000      -1.09770000
