19
Properties=species:S:1:pos:R:3 gdb_56272=T pbc="F F F"
N       -0.03900000       1.20300000       0.10470000
C       -0.28670000      -0.15630000       0.27110000
O        0.18420000      -0.80450000       1.18880000
N       -1.08540000      -0.70760000      -0.70450000
C       -1.25510000      -2.15430000      -0.76330000
C       -2.29810000      -2.66650000       0.24040000
C       -2.45610000      -4.16290000       0.15610000
C       -3.75660000      -4.82860000       0.28890000
O       -3.15130000      -4.66590000      -0.99460000
H        0.34780000       1.62330000       0.93640000
H       -0.76140000       1.75740000      -0.33060000
H       -1.19000000      -0.19680000      -1.56560000
H       -1.56930000      -2.41460000      -1.77770000
H       -0.29320000      -2.64320000      -0.56920000
H       -1.97630000      -2.38680000       1.24890000
H       -3.26180000      -2.18360000       0.04520000
H       -1.56740000      -4.74310000       0.41270000
H       -3.80930000      -5.85290000       0.65590000
H       -4.64860000      -4.22820000       0.46500000
