20
Properties=species:S:1:pos:R:3 gdb_79448=T pbc="F F F"
C       -0.22140000       1.63660000       0.09560000
C        0.05280000       0.14270000       0.02070000
C        0.71630000      -0.54110000      -1.18000000
C        2.28210000      -0.28220000      -1.21820000
C        2.39330000      -1.80230000      -1.00840000
N        1.08340000      -1.71670000      -0.27270000
C        1.22480000      -0.56370000       0.75340000
C        2.46290000       0.19510000       0.24450000
O        3.63610000      -0.24960000       0.90400000
H        0.62040000       2.24600000      -0.24410000
H       -1.08060000       1.89380000      -0.53310000
H       -0.46330000       1.94040000       1.12020000
H       -0.86230000      -0.41840000       0.23630000
H        0.20940000      -0.75780000      -2.12270000
H        2.79130000       0.26570000      -2.01420000
H        2.23340000      -2.38640000      -1.91910000
H        3.24340000      -2.18900000      -0.44500000
H        1.19690000      -0.83320000       1.80820000
H        2.36590000       1.28010000       0.35720000
H        4.39070000       0.19620000       0.50590000
