20
Properties=species:S:1:pos:R:3 gdb_127123=T pbc="F F F"
C        0.05900000       1.39760000       0.03080000
N        0.01070000      -0.01950000      -0.26840000
C        1.18540000      -0.78210000       0.11760000
C       -1.21490000      -0.65470000      -0.12150000
N       -1.28520000      -1.97060000       0.08260000
N       -2.62050000      -2.23070000       0.10420000
C       -3.38950000      -1.12870000      -0.05490000
C       -4.88280000      -1.17530000      -0.05270000
C       -2.51220000      -0.07360000      -0.20400000
H        1.02770000       1.79520000      -0.28510000
H       -0.71430000       1.93220000      -0.52710000
H       -0.07160000       1.62510000       1.10310000
H        1.27580000      -0.90950000       1.20920000
H        1.13670000      -1.77580000      -0.32930000
H        2.07900000      -0.26750000      -0.24790000
H       -2.92330000      -3.17610000       0.25900000
H       -5.27710000      -1.57160000       0.89030000
H       -5.28920000      -0.17090000      -0.18710000
H       -5.27190000      -1.80370000      -0.86220000
H       -2.78080000       0.95840000      -0.35380000
