16
Properties=species:S:1:pos:R:3 gdb_126715=T pbc="F F F"
C        0.30410000       1.50450000       0.16690000
C       -0.13760000       0.07650000      -0.15350000
N        0.61750000      -0.50640000      -1.25680000
C        1.78870000      -1.16650000      -1.24610000
C        2.05660000      -1.43030000      -2.57760000
C        3.21550000      -2.14030000      -3.12830000
O        3.41840000      -2.35210000      -4.29840000
N        1.03130000      -0.91170000      -3.32440000
N        0.17190000      -0.35750000      -2.53480000
H        1.35310000       1.53510000       0.47520000
H        0.18070000       2.14740000      -0.70820000
H       -0.30460000       1.90580000       0.98200000
H       -0.02100000      -0.58000000       0.71330000
H       -1.18600000       0.05230000      -0.45800000
H        2.32110000      -1.39660000      -0.33780000
H        3.92940000      -2.48490000      -2.34480000
