22
Properties=species:S:1:pos:R:3 gdb_9847=T pbc="F F F"
C       -0.05650000       1.60810000      -0.15760000
C       -0.11740000       0.07840000      -0.16190000
C        0.84890000      -0.55410000      -1.17400000
O        2.20240000      -0.19150000      -0.89640000
C        0.68460000      -2.06580000      -1.31300000
C        0.95970000      -2.89080000      -0.06890000
C       -0.38730000      -2.54650000      -2.26280000
C        1.06970000      -2.66130000      -2.64400000
H        0.96310000       1.95220000       0.03500000
H       -0.36510000       2.01580000      -1.12680000
H       -0.71490000       2.03080000       0.60730000
H        0.11510000      -0.30230000       0.84250000
H       -1.13500000      -0.26220000      -0.38860000
H        0.65220000      -0.10840000      -2.15800000
H        2.40600000      -0.48410000      -0.00150000
H        0.26610000      -2.65520000       0.74580000
H        0.86160000      -3.95920000      -0.28320000
H        1.98120000      -2.73150000       0.29790000
H       -0.92610000      -3.45350000      -2.00900000
H       -0.99190000      -1.80500000      -2.77580000
H        1.45510000      -1.99440000      -3.40780000
H        1.51950000      -3.64870000      -2.65130000
