19
Properties=species:S:1:pos:R:3 gdb_106542=T pbc="F F F"
C        0.53940000       1.63540000      -0.43940000
O        0.59780000       0.22580000      -0.24610000
C        0.96740000      -0.46930000      -1.35990000
C        2.36810000      -0.51850000      -2.10570000
C        1.49190000      -1.56650000      -2.86520000
C        0.92740000      -2.03320000      -1.46650000
C        1.76360000      -2.88910000      -0.52550000
C        0.38950000      -0.49620000      -2.79200000
O       -0.43590000       0.03200000      -3.47300000
H        1.53380000       2.04950000      -0.65510000
H       -0.14230000       1.89420000      -1.25780000
H        0.17040000       2.06530000       0.49340000
H        2.67760000       0.36520000      -2.66620000
H        3.18940000      -0.92580000      -1.51980000
H        1.78600000      -2.18890000      -3.70360000
H       -0.08950000      -2.43510000      -1.51800000
H        2.80480000      -2.57200000      -0.44150000
H        1.32820000      -2.86390000       0.47860000
H        1.75940000      -3.93040000      -0.86330000
