17
Properties=species:S:1:pos:R:3 gdb_31550=T pbc="F F F"
C       -0.09060000       1.35960000       0.00470000
N        0.19990000      -0.06360000      -0.02980000
C        0.75180000      -0.65310000       1.07060000
N        1.31140000      -0.05210000       2.08310000
C        1.75530000      -1.10290000       2.87820000
N        2.48220000      -0.84600000       4.03330000
C        1.42990000      -2.29730000       2.32600000
N        1.63420000      -3.60890000       2.72000000
O        0.76360000      -1.99230000       1.10060000
H        0.80840000       1.89670000       0.31290000
H       -0.37180000       1.68680000      -0.99870000
H       -0.89530000       1.61950000       0.70660000
H       -0.44990000      -0.65020000      -0.52980000
H        2.18280000       0.00510000       4.49030000
H        2.48630000      -1.63130000       4.67040000
H        2.26670000      -4.13140000       2.12140000
H        0.77980000      -4.14490000       2.83490000
