14
Properties=species:S:1:pos:R:3 gdb_16389=T pbc="F F F"
O        0.05100000       1.37900000       0.09690000
C        0.01160000      -0.02560000       0.05050000
C       -1.39080000      -0.58800000      -0.24180000
C       -1.16370000      -2.04100000      -0.70410000
C       -0.54880000      -1.26540000      -1.89360000
O       -1.53030000      -0.19280000      -1.65820000
C        0.68110000      -0.62410000      -1.23490000
O        1.81490000      -0.55040000      -1.61140000
H       -0.39120000       1.69050000      -0.70390000
H        0.47310000      -0.39700000       0.96910000
H       -2.21780000      -0.26890000       0.39080000
H       -0.52180000      -2.69590000      -0.10870000
H       -2.09410000      -2.53700000      -0.98280000
H       -0.48760000      -1.62540000      -2.91800000
