17
Properties=species:S:1:pos:R:3 gdb_83675=T pbc="F F F"
N       -0.37560000       1.48870000      -0.00150000
C       -0.05450000       0.10030000      -0.08880000
C       -1.26140000      -0.84580000       0.08220000
O       -2.45080000      -0.31950000      -0.54110000
C       -2.26860000      -1.16030000      -1.71100000
C       -0.90050000      -1.63510000      -1.20850000
C        0.27840000      -0.64460000      -1.48360000
C        0.20070000       0.17230000      -2.67570000
N        0.11590000       0.86680000      -3.59770000
H        0.37600000       2.08240000      -0.33350000
H       -1.21140000       1.68670000      -0.54280000
H        0.74570000      -0.14640000       0.61640000
H       -1.46020000      -1.27220000       1.06800000
H       -3.02630000      -1.95230000      -1.74530000
H       -2.29120000      -0.58980000      -2.64500000
H       -0.66280000      -2.69560000      -1.25100000
H        1.25230000      -1.13850000      -1.45040000
