13
Properties=species:S:1:pos:R:3 gdb_132709=T pbc="F F F"
F        0.00920000       0.04650000       0.00280000
C       -0.00860000       1.37110000       0.01050000
N       -1.20090000       1.93180000       0.02950000
C       -1.23710000       3.26410000       0.03740000
C       -0.09190000       4.06730000       0.02670000
C       -0.19880000       5.54100000       0.03630000
O       -1.23990000       6.15410000       0.05330000
C        1.15380000       3.43090000       0.00650000
C        1.21060000       2.04780000      -0.00200000
H       -2.21610000       3.73370000       0.05310000
H        0.78110000       6.07010000       0.02590000
H        2.06620000       4.02050000      -0.00240000
H        2.14220000       1.49690000      -0.01750000
