15
Properties=species:S:1:pos:R:3 gdb_33558=T pbc="F F F"
C       -0.00860000      -1.20800000      -0.01780000
C       -0.02390000      -0.00800000       0.00060000
C       -0.01960000       1.46210000       0.01250000
N       -0.56850000       2.00740000       1.26620000
C        0.21950000       3.17710000       1.68230000
C        1.50190000       3.00040000       0.91980000
C        1.39000000       2.05480000      -0.00300000
C       -0.76480000       1.95160000      -1.18370000
N       -1.36300000       2.37460000      -2.07820000
H       -0.00200000      -2.27040000      -0.02740000
H       -1.56350000       2.17800000       1.20900000
H       -0.25170000       4.14170000       1.43010000
H        0.37260000       3.16900000       2.76940000
H        2.38580000       3.59500000       1.11260000
H        2.12910000       1.71530000      -0.71420000
