17
Properties=species:S:1:pos:R:3 gdb_106083=T pbc="F F F"
O        0.21990000       1.23100000      -0.53570000
C        0.13310000      -0.08080000       0.01540000
C       -1.27940000      -0.56380000       0.08850000
C       -1.93120000      -1.89760000       0.20970000
C       -2.64760000      -1.88290000       1.57770000
N       -3.22980000      -0.51130000       1.58530000
C       -2.56270000       0.11790000       0.70230000
N       -3.23400000       0.36620000      -0.58670000
C       -2.30290000      -0.84820000      -0.93490000
H       -0.05030000       1.85440000       0.14590000
H        0.70830000      -0.73000000      -0.65460000
H        0.61450000      -0.12870000       1.00340000
H       -1.44470000      -2.79850000      -0.16060000
H       -3.49910000      -2.56680000       1.64890000
H       -1.95280000      -2.12310000       2.39670000
H       -2.74920000       1.11930000      -1.08880000
H       -2.19160000      -1.10600000      -1.98420000
