25
Properties=species:S:1:pos:R:3 gdb_108674=T pbc="F F F"
C       -0.28490000       1.71760000      -0.26500000
C       -0.03170000       0.22000000      -0.01070000
C        0.68570000      -0.46590000      -1.13950000
C        1.94280000      -0.93490000      -1.16150000
C        2.96770000      -0.89670000      -0.06370000
C        3.35030000      -2.28980000       0.46890000
C        2.25900000      -1.60600000      -2.48690000
C        1.10760000      -1.14860000      -3.40980000
C       -0.03290000      -0.75330000      -2.44600000
H        0.65990000       2.25760000      -0.38200000
H       -0.87300000       1.87660000      -1.17420000
H       -0.83320000       2.16770000       0.56870000
H        0.52720000       0.10580000       0.92390000
H       -0.99900000      -0.27680000       0.15050000
H        3.87710000      -0.40750000      -0.44200000
H        2.61370000      -0.27800000       0.76720000
H        2.47730000      -2.80230000       0.88570000
H        3.76050000      -2.92300000      -0.32400000
H        4.10630000      -2.21170000       1.25660000
H        3.24740000      -1.32810000      -2.87450000
H        2.27520000      -2.70000000      -2.37390000
H        1.42510000      -0.26680000      -3.97620000
H        0.81120000      -1.90970000      -4.13650000
H       -0.75300000      -1.57430000      -2.30610000
H       -0.61640000       0.09840000      -2.81470000
