17
Properties=species:S:1:pos:R:3 gdb_6712=T pbc="F F F"
C        0.01010000       1.56660000       0.11190000
C       -0.02820000       0.04280000      -0.03120000
O       -1.35730000      -0.45240000      -0.06890000
C        0.74410000      -0.45130000      -1.25460000
O        0.07550000       0.05900000      -2.40380000
C        0.61480000      -0.41670000      -3.61020000
C       -0.15030000       0.13780000      -4.73130000
N       -0.73710000       0.56090000      -5.63080000
H        1.03470000       1.92440000       0.25980000
H       -0.39240000       2.04780000      -0.78420000
H       -0.59150000       1.86990000       0.97190000
H        0.43170000      -0.41730000       0.85150000
H       -1.72610000      -0.18060000      -0.91800000
H        1.79000000      -0.10680000      -1.23380000
H        0.73770000      -1.55130000      -1.27720000
H        1.67060000      -0.12280000      -3.72540000
H        0.57590000      -1.51680000      -3.66590000
