18
Properties=species:S:1:pos:R:3 gdb_28775=T pbc="F F F"
C       -0.02000000       1.50320000       0.08740000
C       -0.00960000       0.01520000      -0.02310000
C       -0.02770000      -0.81680000      -1.12520000
C       -0.00460000      -2.17820000      -0.68240000
C        0.02620000      -2.14460000       0.68820000
C        0.06250000      -2.98830000       1.93350000
C        0.07780000      -1.92810000       3.02520000
C        0.05410000      -0.70860000       2.47350000
N        0.02290000      -0.81450000       1.07510000
H        0.87360000       1.89160000       0.59280000
H       -0.05030000       1.94500000      -0.91130000
H       -0.89280000       1.87560000       0.63910000
H       -0.05450000      -0.48010000      -2.15130000
H       -0.01080000      -3.05740000      -1.30800000
H       -0.80790000      -3.65160000       2.02580000
H        0.94810000      -3.63560000       1.98550000
H        0.10400000      -2.14180000       4.08310000
H        0.05600000       0.26360000       2.94400000
