16
Properties=species:S:1:pos:R:3 gdb_33955=T pbc="F F F"
N        0.14450000      -1.11710000       0.09660000
C        0.08850000       0.03680000       0.04730000
C       -0.03000000       1.47190000      -0.00800000
C        0.26920000       2.24070000      -1.25700000
N        1.21540000       2.27900000      -0.14380000
C        1.10990000       3.42700000       0.79210000
C       -0.22580000       3.33850000       1.51850000
N       -1.39610000       3.47420000       0.63050000
C       -0.93380000       2.13140000       1.02000000
H        0.63050000       1.70650000      -2.13090000
H       -0.37060000       3.09740000      -1.44160000
H        1.92870000       3.33980000       1.51320000
H        1.23230000       4.36680000       0.24570000
H       -0.29900000       3.66640000       2.55090000
H       -2.22130000       3.72290000       1.17030000
H       -1.54970000       1.50000000       1.64870000
