16
Properties=species:S:1:pos:R:3 gdb_44828=T pbc="F F F"
O       -0.38660000       0.06830000      -0.01190000
C       -0.19960000       1.24990000      -0.02250000
N       -1.08610000       2.34430000       0.08430000
C        0.01190000       3.31450000       0.03710000
C        1.02770000       3.04730000       1.10440000
C        1.00520000       2.18060000      -0.15820000
C        2.17940000       2.02960000      -1.09560000
C        3.19880000       1.11280000      -0.59100000
C        4.03630000       0.36450000      -0.16530000
H       -1.82920000       2.37710000       0.77410000
H       -0.08340000       4.23150000      -0.52930000
H        1.87260000       3.72920000       1.15960000
H        0.71650000       2.63560000       2.06010000
H        1.82340000       1.68050000      -2.07300000
H        2.63070000       3.01530000      -1.26860000
H        4.77050000      -0.30690000       0.20540000
