20
Properties=species:S:1:pos:R:3 gdb_12702=T pbc="F F F"
C       -0.09320000       1.58780000       0.20940000
C        0.19390000       0.10130000       0.00550000
C        1.18260000      -0.20030000      -1.14580000
C        1.86420000      -1.51610000      -0.72900000
C        2.08420000      -1.34000000       0.77360000
O        3.23550000      -0.53510000       1.06510000
C        0.79480000      -0.61790000       1.27220000
O        1.06940000       0.23060000       2.36300000
H        0.82050000       2.13730000       0.45670000
H       -0.51920000       2.02750000      -0.69890000
H       -0.79540000       1.74750000       1.03160000
H       -0.75240000      -0.40060000      -0.23100000
H        0.69470000      -0.26390000      -2.12230000
H        1.92300000       0.60910000      -1.22980000
H        1.18410000      -2.35960000      -0.89730000
H        2.79570000      -1.73370000      -1.26000000
H        2.25820000      -2.27950000       1.30350000
H        3.33270000       0.12150000       0.36660000
H        0.07890000      -1.37100000       1.62280000
H        2.02610000       0.38150000       2.33300000
