21
Properties=species:S:1:pos:R:3 gdb_73268=T pbc="F F F"
C        0.02650000       1.51950000      -0.09450000
C       -0.03450000       0.00770000       0.04410000
C       -1.33690000      -0.65750000       0.55700000
C       -0.48090000      -1.68940000       1.34380000
C        0.70950000      -0.69530000       1.22180000
O        2.02930000      -1.13910000       1.01780000
C        2.23980000      -1.72890000      -0.25710000
C        1.69760000      -0.83350000      -1.36070000
O        0.30160000      -0.63280000      -1.19350000
H        1.03980000       1.86140000      -0.32990000
H       -0.63880000       1.85110000      -0.89800000
H       -0.28240000       2.00810000       0.83500000
H       -1.90270000       0.00830000       1.21380000
H       -1.99380000      -1.04010000      -0.22550000
H       -0.79680000      -1.95720000       2.35350000
H       -0.32160000      -2.60210000       0.76720000
H        0.75120000      -0.03930000       2.09630000
H        3.32100000      -1.86510000      -0.35750000
H        1.76040000      -2.71780000      -0.31840000
H        2.24180000       0.12350000      -1.36190000
H        1.82760000      -1.30310000      -2.34070000
