15
Properties=species:S:1:pos:R:3 gdb_32176=T pbc="F F F"
O        0.02830000       1.37910000       0.03440000
C       -0.01850000      -0.03180000      -0.03060000
C       -1.45430000      -0.49040000      -0.00720000
C       -2.53000000       0.38750000       0.06010000
N       -3.79590000      -0.05660000       0.07860000
C       -3.98530000      -1.36540000       0.03030000
C       -2.89290000      -2.24590000      -0.03760000
O       -3.12040000      -3.57230000      -0.08530000
N       -1.64230000      -1.81820000      -0.05620000
H        0.94920000       1.65210000       0.01110000
H        0.45230000      -0.41790000      -0.94880000
H        0.50790000      -0.50140000       0.81560000
H       -2.37050000       1.45710000       0.09950000
H       -5.00160000      -1.74730000       0.04420000
H       -2.25240000      -3.99760000      -0.12780000
