15
Properties=species:S:1:pos:R:3 gdb_4028=T pbc="F F F"
N       -0.32510000       1.20250000      -0.47040000
C       -0.17820000      -0.07990000      -0.08270000
N        1.08180000      -0.59030000      -0.00650000
H        1.06980000      -1.58750000       0.18340000
H        1.75540000      -0.27750000      -0.68960000
C       -1.29390000      -0.85200000       0.27230000
C       -2.66140000      -0.25490000       0.43200000
O       -3.06040000       0.57490000      -0.68280000
N       -1.02150000      -2.17910000       0.45610000
O       -1.95570000      -2.92290000       0.79710000
H        0.46730000       1.80320000      -0.61260000
H       -1.26280000       1.51800000      -0.68580000
H       -3.36130000      -1.08140000       0.59150000
H       -2.71880000       0.41500000       1.29710000
H       -3.11740000       0.00040000      -1.45440000
