20
Properties=species:S:1:pos:R:3 gdb_119648=T pbc="F F F"
O       -0.08080000       1.47740000      -0.00020000
C        0.01750000       0.06180000      -0.00280000
C       -1.40170000      -0.49920000      -0.00710000
C       -1.44170000      -2.00620000       0.00260000
C       -0.91930000      -2.86180000      -1.19350000
C       -1.89690000      -3.93070000      -0.71570000
C       -2.72150000      -2.94300000       0.01560000
N       -1.94020000      -3.94520000       0.79190000
C       -0.98770000      -2.86400000       1.20330000
H        0.80910000       1.84160000       0.00800000
H        0.56440000      -0.29840000      -0.88890000
H        0.56050000      -0.30150000       0.88500000
H       -1.93160000      -0.10480000       0.86900000
H       -1.92460000      -0.11170000      -0.89020000
H       -1.23870000      -2.44810000      -2.15450000
H        0.15120000      -3.09430000      -1.22720000
H       -2.19810000      -4.84750000      -1.20480000
H       -3.78680000      -2.78100000       0.11630000
H        0.06570000      -3.16420000       1.26690000
H       -1.31780000      -2.46480000       2.16690000
