20
Properties=species:S:1:pos:R:3 gdb_69260=T pbc="F F F"
C        0.07770000       1.52310000      -0.03850000
C       -0.01540000       0.01260000       0.01790000
C       -1.27940000      -0.59730000      -0.60010000
C       -1.91810000      -1.72490000       0.22570000
C       -0.87440000      -2.71370000       0.77250000
C        0.08580000      -1.97250000       1.69450000
O        0.33410000      -2.35130000       2.81850000
C        0.66280000      -0.70110000       1.16240000
N        1.25890000      -0.67080000      -0.19870000
H        1.03810000       1.86520000       0.35390000
H       -0.00830000       1.87220000      -1.07380000
H       -0.72710000       1.98600000       0.54250000
H       -2.01840000       0.19580000      -0.75270000
H       -1.02620000      -0.96680000      -1.60330000
H       -2.45850000      -1.28940000       1.07520000
H       -2.66240000      -2.25430000      -0.37820000
H       -1.33490000      -3.51620000       1.35280000
H       -0.32590000      -3.18380000      -0.05520000
H        1.21490000      -0.13090000       1.90410000
H        1.11490000      -1.56510000      -0.66360000
