17
Properties=species:S:1:pos:R:3 gdb_56046=T pbc="F F F"
C       -0.26980000       0.92910000       0.32600000
C        0.49340000       0.22910000      -0.77210000
O        1.70440000       0.27180000      -0.85780000
C       -0.32970000      -0.61370000      -1.75600000
N       -0.46880000      -1.97430000      -1.24110000
C        0.56150000      -2.74450000      -1.32000000
N        1.80740000      -2.48780000      -1.79650000
C        0.33940000      -4.15950000      -0.86670000
O        1.20740000      -4.99790000      -0.88470000
H        0.41640000       1.39240000       1.03540000
H       -0.92650000       1.69240000      -0.10760000
H       -0.91790000       0.20730000       0.83520000
H       -1.33150000      -0.19100000      -1.87540000
H        0.18720000      -0.59280000      -2.72650000
H        2.15370000      -1.53760000      -1.76760000
H        2.47060000      -3.24100000      -1.68220000
H       -0.69310000      -4.35230000      -0.52160000
