21
Properties=species:S:1:pos:R:3 gdb_77011=T pbc="F F F"
C        1.55690000       1.15960000      -0.78800000
C        0.94290000      -0.15110000      -0.34530000
N        1.73340000      -1.35230000      -0.02200000
C        3.18780000      -1.29540000      -0.05060000
C        3.67980000      -1.56950000      -1.40710000
N        4.07660000      -1.76510000      -2.47410000
C        0.98060000      -0.68180000       1.05770000
C        1.69120000       0.07310000       2.16710000
C       -0.19760000      -1.50030000       1.55410000
H        2.38450000       1.49630000      -0.16090000
H        1.92510000       1.08080000      -1.81640000
H        0.79430000       1.94490000      -0.76980000
H        0.05780000      -0.40760000      -0.92790000
H        3.63960000      -0.34730000       0.27550000
H        3.57630000      -2.07370000       0.61680000
H        2.51450000       0.70070000       1.82330000
H        0.97900000       0.72560000       2.68320000
H        2.08830000      -0.62620000       2.91200000
H        0.11990000      -2.21570000       2.32130000
H       -0.96220000      -0.85170000       1.99640000
H       -0.64760000      -2.06330000       0.73350000
