16
Properties=species:S:1:pos:R:3 gdb_74842=T pbc="F F F"
N       -0.00460000       1.37600000      -0.13820000
C       -0.05770000      -0.00880000      -0.05460000
N       -1.17130000      -0.61930000       0.07130000
C       -1.16920000      -2.03960000      -0.01450000
C       -0.73180000      -2.72850000      -1.26980000
C        0.16260000      -2.80780000      -0.03990000
C        1.40050000      -1.99790000       0.00470000
O        2.51840000      -2.43450000       0.17890000
N        1.18720000      -0.63010000      -0.16730000
H        0.75080000       1.81340000       0.37320000
H       -0.90220000       1.78350000       0.08770000
H       -1.98090000      -2.50120000       0.53790000
H       -1.23090000      -3.64680000      -1.55710000
H       -0.40330000      -2.10900000      -2.09710000
H        0.25400000      -3.76570000       0.45680000
H        2.02800000      -0.07070000      -0.18870000
