17
Properties=species:S:1:pos:R:3 gdb_30327=T pbc="F F F"
O       -0.15600000       1.49910000      -0.22310000
C        0.10020000       0.11150000      -0.01300000
C       -1.19110000      -0.76130000       0.17550000
C       -1.42970000      -1.59680000      -1.13080000
C       -0.10620000      -1.46940000      -1.82870000
C        0.69330000      -0.58050000      -1.19150000
O        1.88530000      -0.43280000      -1.82030000
C        1.83080000      -1.27290000      -2.89730000
C        0.63870000      -1.93390000      -2.96020000
H       -0.55590000       1.59060000      -1.09530000
H        0.72540000       0.09030000       0.88450000
H       -1.04100000      -1.44240000       1.01790000
H       -2.03340000      -0.11250000       0.42750000
H       -1.69790000      -2.63150000      -0.89360000
H       -2.25340000      -1.19620000      -1.73440000
H        2.71520000      -1.29100000      -3.51350000
H        0.35350000      -2.65170000      -3.71360000
