17
Properties=species:S:1:pos:R:3 gdb_75720=T pbc="F F F"
C       -0.59330000       1.35100000      -0.06350000
C        0.01120000      -0.04320000       0.01230000
C        1.24580000      -0.39490000      -0.84350000
O        1.52130000      -0.23040000      -1.99560000
C        1.99470000      -0.98040000       0.37190000
O        2.76970000       0.09200000       0.96750000
C        1.74030000       0.40220000       1.93360000
C        0.75640000      -0.57480000       1.26970000
O       -0.03740000      -1.40540000       2.04800000
H        0.14660000       2.12500000       0.16100000
H       -0.96570000       1.53850000      -1.07470000
H       -1.42960000       1.45890000       0.63370000
H       -0.75110000      -0.80120000      -0.21900000
H        2.52030000      -1.93750000       0.33180000
H        2.03920000       0.08930000       2.94530000
H        1.48340000       1.46640000       1.95230000
H        0.49300000      -1.76090000       2.76960000
