19
Properties=species:S:1:pos:R:3 gdb_93356=T pbc="F F F"
C       -0.17900000       1.52580000       0.09560000
C        0.01630000       0.00570000       0.01570000
C        0.70150000      -0.41430000      -1.29580000
C        0.94770000      -1.92620000      -1.37380000
C        1.60360000      -2.55270000      -0.14860000
O        2.04310000      -3.67960000      -0.15540000
C        1.60650000      -1.74410000       1.12210000
O        2.23900000      -0.45170000       1.05260000
C        0.82230000      -0.49460000       1.20110000
H        0.78680000       2.04130000       0.07340000
H       -0.77540000       1.88770000      -0.74750000
H       -0.69310000       1.81390000       1.01840000
H       -0.97150000      -0.47600000       0.07260000
H        0.08460000      -0.10050000      -2.14430000
H        1.65310000       0.11960000      -1.37800000
H       -0.01120000      -2.45470000      -1.48150000
H        1.53770000      -2.20080000      -2.25320000
H        1.83700000      -2.31720000       2.01810000
H        0.46920000      -0.19310000       2.18860000
