17
Properties=species:S:1:pos:R:3 gdb_36635=T pbc="F F F"
N        0.02210000      -1.09790000      -0.00190000
C        0.03150000       0.05640000       0.00540000
C       -0.00850000       1.51810000       0.01340000
O        1.33500000       1.99960000       0.04120000
C        1.44210000       3.34070000       0.05370000
N        0.45390000       4.13740000       0.04790000
C        0.98350000       5.50810000       0.03060000
C        2.50710000       5.40950000       0.33400000
C        2.83160000       3.92830000       0.04570000
H       -0.53050000       1.88950000      -0.87520000
H       -0.56250000       1.87870000       0.88680000
H        0.78880000       5.94940000      -0.95530000
H        0.44930000       6.12330000       0.76100000
H        3.10340000       6.10230000      -0.26290000
H        2.69610000       5.63670000       1.38690000
H        3.48450000       3.45580000       0.78380000
H        3.29240000       3.77170000      -0.93690000
