16
Properties=species:S:1:pos:R:3 gdb_14579=T pbc="F F F"
N       -0.03080000      -1.19180000      -0.00440000
C       -0.03970000      -0.03650000       0.00230000
C       -0.02370000       1.42450000       0.01040000
C        1.40750000       1.99700000      -0.00070000
C        1.40680000       3.52750000       0.00770000
C        2.83800000       4.10010000      -0.00330000
C        2.85380000       5.56110000       0.00430000
N        2.84500000       6.71640000       0.01110000
H       -0.58390000       1.78350000      -0.86110000
H       -0.56630000       1.77360000       0.89680000
H        1.95190000       1.61510000       0.87030000
H        1.93450000       1.62470000      -0.88650000
H        0.86240000       3.90950000      -0.86330000
H        0.87970000       3.89990000       0.89350000
H        3.39810000       3.74130000       0.86820000
H        3.38070000       3.75080000      -0.88960000
