25
Properties=species:S:1:pos:R:3 gdb_91649=T pbc="F F F"
C       -0.09740000       1.51830000       0.01100000
C        0.01430000      -0.00740000       0.02460000
C        0.83330000      -0.69190000      -1.13190000
C        1.71730000      -1.64320000      -0.29310000
C        0.67480000      -2.16560000       0.73680000
C        0.72600000      -0.68340000       1.22410000
C        2.26140000      -0.71200000       0.85140000
C        3.12840000      -1.42230000       1.90600000
C        3.01890000       0.56420000       0.46590000
H        0.86500000       2.02940000       0.06790000
H       -0.59730000       1.85580000      -0.90420000
H       -0.70220000       1.86330000       0.85740000
H       -1.01420000      -0.38710000      -0.00300000
H        0.19010000      -1.24420000      -1.82370000
H        1.40810000       0.02310000      -1.72660000
H        2.38140000      -2.31760000      -0.83840000
H       -0.28180000      -2.51700000       0.33920000
H        1.06090000      -2.89890000       1.44030000
H        0.39500000      -0.39360000       2.22440000
H        2.67650000      -2.31340000       2.34240000
H        4.08990000      -1.71830000       1.47040000
H        3.34810000      -0.73440000       2.73080000
H        3.02240000       1.28150000       1.29490000
H        4.06610000       0.32020000       0.25050000
H        2.62320000       1.07270000      -0.41160000
