19
Properties=species:S:1:pos:R:3 gdb_113691=T pbc="F F F"
O       -0.15300000       1.39920000      -0.37060000
C        0.00710000       0.07710000       0.13110000
C       -1.35080000      -0.57630000       0.06260000
C       -1.81920000      -1.27190000      -1.16590000
C       -1.53220000      -2.09840000       0.08270000
C       -0.37670000      -3.02440000       0.08130000
O        0.62950000      -2.87170000      -0.59020000
C       -0.47510000      -4.25420000       0.97570000
O        0.66980000      -5.04370000       0.88420000
H        0.71240000       1.81860000      -0.37710000
H        0.73160000      -0.49810000      -0.45640000
H        0.35730000       0.09170000       1.17610000
H       -2.10830000      -0.04560000       0.63270000
H       -2.85430000      -1.17730000      -1.47240000
H       -1.10200000      -1.39360000      -1.97050000
H       -2.38700000      -2.45320000       0.64960000
H       -0.64860000      -3.91160000       2.01030000
H       -1.37990000      -4.81530000       0.68420000
H        1.23370000      -4.58570000       0.23910000
