16
Properties=species:S:1:pos:R:3 gdb_11013=T pbc="F F F"
C        0.01560000       1.50250000      -0.05710000
C       -0.02520000       0.00300000       0.06790000
C       -1.30500000      -0.74230000      -0.28270000
O       -1.24070000      -2.00470000       0.40050000
C       -0.29580000      -1.95780000       1.40220000
N       -0.21010000      -2.78350000       2.35240000
C        0.60040000      -0.79630000       1.16320000
N        1.20880000      -0.73640000      -0.18500000
H        0.99260000       1.87900000       0.25320000
H       -0.14740000       1.81130000      -1.09590000
H       -0.75640000       1.97110000       0.56180000
H       -2.18860000      -0.18960000       0.06040000
H       -1.41170000      -0.94120000      -1.35480000
H       -0.96870000      -3.46610000       2.30410000
H        1.18270000      -0.39740000       1.98370000
H        1.03430000      -1.60240000      -0.69280000
