20
Properties=species:S:1:pos:R:3 gdb_50599=T pbc="F F F"
O        0.14860000      -0.07990000       0.04460000
C        0.14230000       1.13300000       0.11330000
N        1.22660000       1.93230000      -0.05400000
C        2.57810000       1.39960000      -0.22750000
C        3.46020000       2.42160000       0.51310000
C        2.72000000       3.75340000       0.33710000
C        2.77660000       4.42200000      -1.07050000
C        1.24690000       4.20010000      -1.24000000
C        1.22080000       3.37960000       0.08670000
H       -0.77250000       1.72060000       0.33110000
H        2.61830000       0.38730000       0.17720000
H        2.83990000       1.34190000      -1.29260000
H        3.51320000       2.16000000       1.57510000
H        4.48190000       2.45040000       0.12380000
H        2.89570000       4.44730000       1.16040000
H        3.10540000       5.46310000      -1.07730000
H        3.38900000       3.87020000      -1.78920000
H        0.66360000       5.12190000      -1.17270000
H        0.92720000       3.65060000      -2.12830000
H        0.47120000       3.68610000       0.81990000
