16
Properties=species:S:1:pos:R:3 gdb_84338=T pbc="F F F"
C       -0.22140000       1.58610000      -0.01910000
C        0.00230000       0.06510000      -0.03100000
C        0.79380000      -0.47240000      -1.19390000
C        1.84980000      -1.20110000      -0.83540000
C        1.97810000      -1.32660000       0.66800000
C        3.28230000      -0.94450000       1.20070000
N        4.32110000      -0.63580000       1.60180000
C        0.82000000      -0.40410000       1.18330000
O        0.62630000      -0.11740000       2.32850000
H        0.72860000       2.12150000      -0.10650000
H       -0.86280000       1.88800000      -0.85180000
H       -0.69940000       1.88360000       0.91730000
H       -0.98060000      -0.42590000       0.03300000
H        0.51060000      -0.27170000      -2.22100000
H        2.55460000      -1.67440000      -1.50690000
H        1.76200000      -2.34800000       1.01400000
