18
Properties=species:S:1:pos:R:3 gdb_82143=T pbc="F F F"
C       -0.10550000       1.64650000      -0.19300000
C       -0.01690000       0.13360000      -0.06970000
C        0.69910000      -0.64750000      -1.18570000
N        2.07920000      -0.12490000      -1.22920000
C        1.72970000      -1.17020000      -0.23900000
C        1.04530000      -0.47560000       0.92870000
O        1.84240000       0.44560000       1.66200000
C        1.80960000       0.39390000       3.00660000
O        2.43230000       1.13870000       3.70110000
H        0.86920000       2.06800000      -0.44340000
H       -0.82030000       1.92490000      -0.97470000
H       -0.44390000       2.09620000       0.74590000
H       -0.99870000      -0.30010000       0.14400000
H        0.25200000      -1.13580000      -2.04210000
H        2.56460000      -0.59560000      -1.99200000
H        2.25280000      -2.11820000      -0.22140000
H        0.58270000      -1.19420000       1.61420000
H        1.15050000      -0.41160000       3.38890000
