15
Properties=species:S:1:pos:R:3 gdb_2310=T pbc="F F F"
C        0.23350000       0.96000000      -1.76090000
C        0.30710000      -0.30670000      -0.93590000
C        1.25650000      -1.40490000      -1.27570000
N        1.42830000      -0.63450000      -0.04450000
C        2.56430000       0.27450000       0.02630000
C        3.73970000      -0.42130000       0.56460000
N        4.67770000      -0.95770000       0.97230000
H        1.16780000       1.18200000      -2.28240000
H       -0.54570000       0.85330000      -2.52250000
H       -0.02940000       1.82460000      -1.14160000
H       -0.64620000      -0.59200000      -0.49390000
H        0.98740000      -2.44890000      -1.14480000
H        1.95170000      -1.21540000      -2.09330000
H        2.85880000       0.72140000      -0.93650000
H        2.31470000       1.10100000       0.70200000
