17
Properties=species:S:1:pos:R:3 gdb_84621=T pbc="F F F"
O        0.34520000       1.42800000      -0.12310000
C        0.11230000       0.03160000      -0.01090000
C        0.64190000      -0.58880000       1.27130000
C       -0.27420000      -1.33220000       1.89340000
C       -1.59110000      -1.30140000       1.18940000
C       -2.25760000       0.03670000       1.11760000
C       -1.36070000      -0.39180000      -0.03280000
C       -2.01770000      -0.73700000      -1.31390000
O       -3.18590000      -1.02430000      -1.43390000
H       -0.08570000       1.85750000       0.62440000
H        0.62420000      -0.39000000      -0.88760000
H        1.65290000      -0.39780000       1.61150000
H       -0.12590000      -1.88120000       2.81660000
H       -2.19910000      -2.19280000       1.08570000
H       -3.31320000       0.05790000       0.87030000
H       -1.90750000       0.81790000       1.78480000
H       -1.33700000      -0.72830000      -2.19510000
