25
Properties=species:S:1:pos:R:3 gdb_101483=T pbc="F F F"
C       -0.10280000       1.33280000       0.06440000
O       -0.20060000      -0.05620000      -0.13550000
C        0.65020000      -0.58580000      -1.14880000
C        2.11340000      -0.64310000      -0.69770000
C        0.08890000      -1.96230000      -1.53070000
C        0.04650000      -2.97040000      -0.34680000
C       -1.25550000      -3.76450000      -0.54260000
C       -2.22930000      -2.70350000      -1.07490000
C       -1.37500000      -1.89190000      -2.06800000
H        0.86810000       1.63650000       0.48230000
H       -0.26220000       1.89090000      -0.87210000
H       -0.88480000       1.61190000       0.77560000
H        0.58300000       0.06800000      -2.03630000
H        2.22050000      -1.26750000       0.19390000
H        2.73820000      -1.06460000      -1.49180000
H        2.50360000       0.35210000      -0.46600000
H        0.74230000      -2.35350000      -2.31870000
H        0.93370000      -3.60850000      -0.30480000
H       -0.00680000      -2.41600000       0.59560000
H       -1.11180000      -4.55170000      -1.29440000
H       -1.60020000      -4.25090000       0.37510000
H       -3.12870000      -3.12720000      -1.53160000
H       -2.54900000      -2.05620000      -0.25030000
H       -1.72340000      -0.86020000      -2.16110000
H       -1.42760000      -2.34320000      -3.06480000
