16
Properties=species:S:1:pos:R:3 gdb_5515=T pbc="F F F"
C       -0.06860000       1.39810000       0.04120000
N       -0.01230000      -0.05210000      -0.00430000
C        0.58670000      -0.65180000       0.93390000
O        1.21480000      -0.07470000       2.02260000
C        1.74510000      -1.09210000       2.79710000
C        1.46860000      -2.27250000       2.23380000
N        0.74240000      -2.02080000       1.07320000
C        0.23930000      -2.98370000       0.12120000
H        0.92980000       1.85920000       0.04040000
H       -0.60570000       1.76100000      -0.83910000
H       -0.59330000       1.77150000       0.93280000
H        2.27040000      -0.80180000       3.68880000
H        1.71510000      -3.27270000       2.54690000
H       -0.40550000      -3.72070000       0.61190000
H       -0.34230000      -2.42960000      -0.61670000
H        1.05550000      -3.50930000      -0.38810000
