16
Properties=species:S:1:pos:R:3 gdb_28782=T pbc="F F F"
O        0.08880000       1.35010000       0.22680000
C        0.06920000       0.00760000       0.01430000
C        0.06370000      -0.77940000      -1.11600000
C        0.03970000      -2.15180000      -0.68170000
C        0.03190000      -2.14680000       0.68590000
C        0.01100000      -3.00470000       1.92310000
C        0.02040000      -1.95570000       3.02830000
C        0.04270000      -0.72670000       2.49890000
N        0.05010000      -0.81630000       1.10010000
H        0.10080000       1.78970000      -0.62830000
H        0.07530000      -0.42390000      -2.13530000
H        0.03000000      -3.01770000      -1.32590000
H       -0.87750000      -3.64750000       1.98620000
H        0.87820000      -3.67460000       1.99710000
H        0.01040000      -2.18530000       4.08320000
H        0.05480000       0.24120000       2.97670000
