20
Properties=species:S:1:pos:R:3 gdb_13619=T pbc="F F F"
C        0.08090000       1.58970000      -0.15540000
C        0.02430000       0.08750000       0.02250000
C        1.25340000      -0.77030000      -0.13430000
C        0.61460000      -0.61060000       1.22920000
C        1.31600000       0.14160000       2.33230000
O        0.40250000       0.89080000       3.15320000
C        2.14170000      -0.77660000       3.23980000
O        2.71280000      -0.05030000       4.30500000
H        1.04980000       2.00020000       0.14170000
H       -0.07990000       1.85840000      -1.20500000
H       -0.68490000       2.09010000       0.44560000
H       -0.89820000      -0.35930000      -0.34040000
H        1.17450000      -1.72920000      -0.63450000
H        2.19820000      -0.26130000      -0.30130000
H        0.05620000      -1.47490000       1.58810000
H        1.98780000       0.89990000       1.91750000
H       -0.34010000       0.31230000       3.36200000
H        1.49160000      -1.59230000       3.60880000
H        2.95670000      -1.23970000       2.67340000
H        2.01910000       0.56000000       4.58960000
