16
Properties=species:S:1:pos:R:3 gdb_88275=T pbc="F F F"
N       -0.12590000       1.28090000      -0.03340000
C        0.03780000      -0.05860000       0.00060000
O        1.09950000      -0.65140000      -0.03210000
C       -1.31180000      -0.80510000       0.09500000
O       -2.35880000      -0.16380000       0.12350000
C       -1.24520000      -2.25830000       0.09370000
C       -2.36260000      -3.03500000       0.80820000
C       -2.41760000      -2.97490000      -0.66490000
O       -3.36120000      -2.24570000      -1.34850000
H        0.67610000       1.88370000      -0.10210000
H       -1.05990000       1.65700000      -0.01180000
H       -0.25380000      -2.68560000       0.04500000
H       -2.06090000      -3.95500000       1.29630000
H       -3.07490000      -2.42540000       1.35540000
H       -2.10850000      -3.84340000      -1.23660000
H       -3.48010000      -1.40320000      -0.87820000
