17
Properties=species:S:1:pos:R:3 gdb_24679=T pbc="F F F"
C       -0.02070000       1.51250000      -0.03350000
N        1.33290000       2.09260000      -0.02380000
C        2.25620000       1.38860000      -0.81810000
C        3.42900000       1.76450000      -1.42290000
C        3.98750000       0.59560000      -2.02830000
C        3.14060000      -0.45320000      -1.78160000
N        2.07930000       0.02650000      -1.03670000
C        1.00730000      -0.67040000      -0.47960000
C       -0.01930000       0.00170000       0.04610000
H       -0.58230000       1.95160000       0.79570000
H       -0.52520000       1.83550000      -0.95680000
H        1.67200000       2.19340000       0.92760000
H        3.83860000       2.76230000      -1.42830000
H        4.89960000       0.54570000      -2.60280000
H        3.16520000      -1.48400000      -2.09730000
H        1.09380000      -1.75020000      -0.49410000
H       -0.84810000      -0.52560000       0.50220000
