19
Properties=species:S:1:pos:R:3 gdb_86756=T pbc="F F F"
C        0.11990000       1.64280000      -0.02370000
C        0.00690000       0.11890000       0.07820000
N        0.65080000      -0.53250000      -1.07880000
C        1.32890000      -1.75710000      -0.63740000
C        1.47330000      -1.53390000       0.85280000
C        0.73830000      -0.49970000       1.25470000
C        0.57790000       0.01150000       2.64980000
C        0.56150000      -2.99300000      -0.92230000
N       -0.05450000      -3.93990000      -1.17070000
H        1.17030000       1.94520000      -0.06220000
H       -0.36930000       1.99910000      -0.93530000
H       -0.36380000       2.13290000       0.82750000
H       -1.06510000      -0.13950000       0.16090000
H        0.01420000      -0.69510000      -1.84820000
H        2.30040000      -1.86570000      -1.14040000
H        2.07630000      -2.18260000       1.47470000
H        1.14250000      -0.59300000       3.36370000
H        0.91760000       1.05010000       2.73670000
H       -0.47690000      -0.00030000       2.95160000
