20
Properties=species:S:1:pos:R:3 gdb_107498=T pbc="F F F"
O        0.60470000       0.41700000      -1.08070000
C        0.01320000       0.32490000       0.20970000
C       -1.40630000      -0.16310000       0.14330000
N       -1.77960000      -1.28630000      -0.75230000
C       -2.44560000       0.03370000      -0.90920000
C       -3.56660000       0.08990000       0.13920000
C       -2.47800000      -0.11360000       1.22260000
C       -2.55210000      -0.90140000       2.49190000
C       -2.39530000       0.60490000       2.53750000
H        0.16830000       1.13790000      -1.54680000
H        0.63680000      -0.38370000       0.76850000
H        0.05550000       1.28690000       0.74210000
H       -1.04110000      -1.31190000      -1.45900000
H       -2.39670000       0.56600000      -1.85220000
H       -4.04870000       1.06940000       0.20390000
H       -4.32370000      -0.69380000       0.04970000
H       -3.51250000      -1.32260000       2.77060000
H       -1.70140000      -1.51550000       2.76900000
H       -1.43790000       1.00740000       2.85380000
H       -3.24750000       1.20300000       2.84520000
