19
Properties=species:S:1:pos:R:3 gdb_103980=T pbc="F F F"
C       -0.12850000       1.60040000       0.17770000
C       -0.04340000       0.08710000       0.15620000
C       -1.38980000      -0.57480000      -0.15460000
O       -1.79690000      -0.26370000      -1.47300000
O        0.91020000      -0.41020000      -0.86210000
C        1.56380000      -1.22260000       0.11660000
C        2.21890000      -0.35990000       1.16380000
C        0.73950000      -0.66880000       1.24330000
O        0.14330000      -1.32160000       2.30460000
H        0.85870000       2.05920000       0.26630000
H       -0.60240000       1.95690000      -0.74070000
H       -0.74340000       1.92650000       1.02400000
H       -1.30330000      -1.65990000      -0.00080000
H       -2.16690000      -0.20200000       0.51990000
H       -1.05340000      -0.51570000      -2.03580000
H        1.87370000      -2.22250000      -0.16080000
H        2.80770000      -0.91400000       1.88970000
H        2.59730000       0.62450000       0.90550000
H        0.23680000      -0.77320000       3.09130000
