18
Properties=species:S:1:pos:R:3 gdb_57152=T pbc="F F F"
C       -0.08070000       1.41930000       0.01340000
C        0.02470000      -0.11180000       0.10320000
C        0.74050000      -0.52720000       1.30890000
C        1.33770000      -0.87730000       2.29900000
C        2.08190000      -1.26550000       3.46860000
O        1.73500000      -2.11790000       4.25370000
N       -1.32040000      -0.69750000       0.08960000
C       -1.86840000      -0.98720000      -1.23440000
C       -1.41460000      -2.08810000      -0.34110000
H        0.91200000       1.87580000       0.02100000
H       -0.58930000       1.69750000      -0.91370000
H       -0.65770000       1.80400000       0.85710000
H        0.62090000      -0.46920000      -0.75970000
H        3.03160000      -0.70810000       3.60390000
H       -2.92510000      -0.77340000      -1.36270000
H       -1.24940000      -0.76610000      -2.10310000
H       -0.49450000      -2.60260000      -0.61280000
H       -2.13220000      -2.69760000       0.19920000
