23
Properties=species:S:1:pos:R:3 gdb_1104=T pbc="F F F"
C        0.08240000       1.55780000      -0.00710000
C       -0.00760000       0.02310000       0.05380000
C        0.84400000      -0.48140000       1.23160000
C       -1.47340000      -0.53070000       0.04340000
C       -2.20400000      -0.04200000      -1.22440000
C       -1.44530000      -2.07250000      -0.00090000
C       -2.27470000      -0.08410000       1.28130000
H        1.13080000       1.86940000      -0.06370000
H       -0.42870000       1.97470000      -0.87820000
H       -0.34340000       2.02330000       0.88850000
H        0.45640000      -0.36240000      -0.86630000
H        0.46100000      -0.11810000       2.19150000
H        0.89170000      -1.57200000       1.27950000
H        1.87110000      -0.11370000       1.13550000
H       -1.63720000      -0.28930000      -2.12950000
H       -3.18600000      -0.52000000      -1.30820000
H       -2.36940000       1.03880000      -1.21630000
H       -1.04220000      -2.50610000       0.91840000
H       -2.45780000      -2.46990000      -0.13040000
H       -0.83800000      -2.43450000      -0.83860000
H       -2.35850000       1.00530000       1.34250000
H       -3.29290000      -0.48680000       1.24010000
H       -1.82180000      -0.44060000       2.21150000
