17
Properties=species:S:1:pos:R:3 gdb_52518=T pbc="F F F"
C       -0.16250000       1.36340000      -0.62430000
C       -0.03890000       0.02670000      -0.07210000
C        0.05690000      -1.08430000       0.39040000
C        0.19940000      -2.41770000       0.92160000
O       -0.63050000      -2.93460000       1.63860000
C        1.48250000      -3.15730000       0.49650000
C        1.71570000      -4.40390000       1.35450000
C        1.33820000      -3.53750000      -0.97740000
O        1.88600000      -2.97910000      -1.88900000
H        0.39110000       1.45450000      -1.56440000
H       -1.21050000       1.61750000      -0.81350000
H        0.23980000       2.10430000       0.07560000
H        2.31500000      -2.44900000       0.55150000
H        2.64490000      -4.90300000       1.06520000
H        1.77740000      -4.13410000       2.41120000
H        0.88790000      -5.10900000       1.24650000
H        0.66060000      -4.40520000      -1.14710000
