19
Properties=species:S:1:pos:R:3 gdb_102888=T pbc="F F F"
C        0.89070000       0.99220000      -0.33920000
C        0.26230000      -0.37460000      -0.06240000
C       -1.26370000      -0.30430000       0.09270000
O       -1.78890000       0.16710000      -1.14260000
C       -3.17330000       0.47570000      -1.09230000
C       -3.60170000       1.00740000      -2.37820000
C       -3.98270000       1.44820000      -3.42810000
C       -1.83290000      -1.60510000       0.47040000
C       -2.29420000      -2.67260000       0.77580000
H        1.97320000       0.90060000      -0.46620000
H        0.47300000       1.43330000      -1.24700000
H        0.70980000       1.68670000       0.48910000
H        0.48290000      -1.07260000      -0.87690000
H        0.67260000      -0.81220000       0.85380000
H       -1.50710000       0.42240000       0.88850000
H       -3.75850000      -0.42270000      -0.84410000
H       -3.36990000       1.21640000      -0.29850000
H       -4.31460000       1.83630000      -4.35920000
H       -2.70150000      -3.61530000       1.04750000
