16
Properties=species:S:1:pos:R:3 gdb_22611=T pbc="F F F"
C       -0.13260000       1.49850000       0.02940000
C        0.15760000       0.03930000      -0.05950000
O       -0.71550000      -0.89420000       0.64460000
C        0.69050000      -0.94980000       0.91190000
C        1.27110000      -1.84370000      -0.21140000
O        0.78640000      -3.14950000      -0.28710000
C        0.73130000      -0.76310000      -1.18680000
N        0.82680000      -0.47490000      -2.41530000
O        1.51380000      -1.46540000      -3.12840000
H        0.74120000       2.07920000      -0.28000000
H       -0.96370000       1.76500000      -0.63100000
H       -0.40170000       1.77180000       1.05250000
H        1.01710000      -0.81740000       1.93700000
H        2.36360000      -1.89010000      -0.23080000
H       -0.17380000      -3.08470000      -0.20180000
H        1.51390000      -1.11080000      -4.02440000
