18
Properties=species:S:1:pos:R:3 gdb_14200=T pbc="F F F"
O       -0.12520000       1.36570000      -0.04120000
C       -0.02590000      -0.02290000       0.01510000
C        0.43110000      -0.79380000       1.28920000
C       -0.40370000      -1.92210000       0.66670000
C        0.00100000      -2.11340000      -0.86470000
C       -1.45240000      -1.71700000      -1.24560000
C       -1.36650000      -0.86930000       0.03090000
C        0.74340000      -0.78050000      -1.09230000
H        0.76250000       1.73130000      -0.12260000
H        1.50430000      -0.93000000       1.46260000
H       -0.05120000      -0.40560000       2.19110000
H       -0.75500000      -2.79400000       1.21470000
H        0.46280000      -3.03050000      -1.23020000
H       -1.61530000      -1.23380000      -2.21480000
H       -2.16090000      -2.54130000      -1.12080000
H       -2.21520000      -0.43350000       0.55620000
H        0.57430000      -0.37010000      -2.09220000
H        1.82060000      -0.82230000      -0.90020000
