17
Properties=species:S:1:pos:R:3 gdb_77536=T pbc="F F F"
C        0.04410000       1.43690000       0.13440000
C       -0.03370000      -0.04020000      -0.06360000
C        0.58570000      -0.94620000      -1.15760000
C        0.04650000      -1.84960000      -0.03070000
O        0.62360000      -0.92480000       0.96560000
C        0.19860000      -3.26680000       0.16370000
N        0.26200000      -4.41360000       0.29920000
C       -1.27840000      -0.97280000       0.00150000
N       -2.07850000      -0.88210000       1.17460000
H        1.08470000       1.76010000       0.22630000
H       -0.40750000       1.95240000      -0.71900000
H       -0.50020000       1.72730000       1.03740000
H        0.09440000      -0.99190000      -2.13220000
H        1.67270000      -0.91080000      -1.21930000
H       -1.89290000      -1.02760000      -0.90080000
H       -2.76870000      -1.62300000       1.22020000
H       -1.48440000      -0.93760000       1.99680000
