17
Properties=species:S:1:pos:R:3 gdb_52859=T pbc="F F F"
C       -0.03270000       1.51560000       0.14840000
C        0.00050000       0.06130000       0.12300000
C        0.02570000      -1.14310000       0.09660000
C        0.07940000      -2.57990000       0.02260000
C        1.33950000      -3.16800000      -0.61530000
C        1.54020000      -2.71860000      -1.99310000
N        1.70420000      -2.36360000      -3.08000000
C       -0.62470000      -3.37710000       1.07390000
N       -1.15380000      -3.33310000      -0.29300000
H        0.69540000       1.93400000      -0.55460000
H       -1.02140000       1.89220000      -0.13530000
H        0.20040000       1.90520000       1.14530000
H        2.21930000      -2.89100000      -0.02430000
H        1.26070000      -4.25930000      -0.61120000
H       -0.21770000      -4.33820000       1.37780000
H       -1.13120000      -2.82360000       1.85840000
H       -1.93860000      -2.68950000      -0.35050000
