17
Properties=species:S:1:pos:R:3 gdb_117015=T pbc="F F F"
C        0.05750000       1.40130000      -0.12910000
O        0.00820000      -0.00220000      -0.01270000
C        0.61830000      -0.65490000      -1.07970000
C        0.53040000      -2.16640000      -0.89310000
O        0.00080000      -2.69460000       0.05470000
C        1.14760000      -2.91960000      -1.96970000
C        1.66070000      -3.54560000      -2.86470000
C        2.28630000      -4.27820000      -3.95640000
O        2.17030000      -5.67240000      -3.73070000
H        1.09390000       1.77310000      -0.15780000
H       -0.46000000       1.75500000      -1.03480000
H       -0.44300000       1.81460000       0.74910000
H        0.14820000      -0.40410000      -2.04920000
H        1.68650000      -0.38620000      -1.18070000
H        1.80210000      -3.97540000      -4.89980000
H        3.34040000      -3.96210000      -4.02700000
H        2.59270000      -6.12210000      -4.46980000
