21
Properties=species:S:1:pos:R:3 gdb_92240=T pbc="F F F"
C       -0.27030000       1.55740000       0.01120000
C        0.04020000       0.06840000       0.02940000
C        1.19020000      -0.51200000      -0.86680000
C        1.66190000      -1.44270000       0.29930000
C        2.93040000      -0.98140000       1.06460000
C        2.04850000      -0.01880000       1.91110000
C        1.37610000      -0.62030000       3.16790000
O        0.16800000      -0.96330000       2.43710000
C        0.76230000      -0.54800000       1.21650000
H        0.63430000       2.15040000       0.18730000
H       -0.68660000       1.86540000      -0.95390000
H       -0.99870000       1.81670000       0.78690000
H       -0.87400000      -0.51160000      -0.15070000
H        0.86520000      -1.02320000      -1.77450000
H        1.93510000       0.24110000      -1.14250000
H        1.48570000      -2.50820000       0.14780000
H        3.42120000      -1.76380000       1.65210000
H        3.68990000      -0.49180000       0.44760000
H        2.32200000       1.03500000       1.97110000
H        1.86740000      -1.50630000       3.59000000
H        1.15820000       0.08950000       3.97350000
