15
Properties=species:S:1:pos:R:3 gdb_62343=T pbc="F F F"
C        0.00430000       1.51700000       0.04710000
C        0.04280000       0.00430000      -0.08620000
C       -1.13390000      -0.63620000       0.47660000
N       -2.09800000      -1.10990000       0.90190000
C        0.69310000      -0.75190000      -1.18810000
C        1.92650000      -0.05110000      -1.74900000
C        2.41060000      -0.02330000      -0.28940000
O        3.36760000       0.36760000       0.29350000
N        1.27980000      -0.80570000       0.22230000
H        0.86090000       1.99670000      -0.42800000
H       -0.90930000       1.90280000      -0.41330000
H       -0.00040000       1.79570000       1.10410000
H        0.23280000      -1.63610000      -1.61120000
H        2.54780000      -0.71590000      -2.35480000
H        1.80770000       0.90150000      -2.26900000
