18
Properties=species:S:1:pos:R:3 gdb_119668=T pbc="F F F"
C       -0.03710000       1.32560000       0.00520000
O       -0.09220000      -0.08140000       0.03030000
C        0.74080000      -0.64010000       1.01960000
C        0.65030000      -2.12700000       0.95070000
O        1.24910000      -2.87190000      -0.15320000
C        0.66470000      -3.91070000       0.68110000
C        1.00490000      -3.19750000       2.03130000
N       -0.39620000      -3.19780000       2.56310000
C       -0.58920000      -3.06610000       1.08090000
H        0.97890000       1.69070000      -0.21310000
H       -0.71110000       1.66310000      -0.78540000
H       -0.36130000       1.76480000       0.96210000
H        1.78960000      -0.32990000       0.87740000
H        0.42930000      -0.32510000       2.03000000
H        0.76430000      -4.95200000       0.37220000
H        1.89670000      -3.27450000       2.65460000
H       -0.65660000      -4.13740000       2.87210000
H       -1.55970000      -2.98170000       0.59330000
