16
Properties=species:S:1:pos:R:3 gdb_131646=T pbc="F F F"
O        0.09710000       1.28300000       0.56410000
C        0.03250000       0.00550000      -0.05530000
C       -1.38070000      -0.52220000      -0.13800000
C       -1.87160000      -1.28610000      -1.14100000
C       -3.23260000      -1.78890000      -1.07710000
N       -3.72960000      -2.53230000      -2.00670000
C       -3.93950000      -1.34200000       0.13320000
N       -3.45330000      -0.59510000       1.07200000
N       -2.17180000      -0.20820000       0.93470000
H       -0.29840000       1.92580000      -0.03500000
H        0.48200000      -0.00020000      -1.05590000
H        0.63530000      -0.65280000       0.58090000
H       -1.25820000      -1.54070000      -1.99690000
H       -4.69670000      -2.77750000      -1.78200000
H       -4.97430000      -1.64650000       0.27430000
H       -1.82840000       0.43170000       1.63340000
