16
Properties=species:S:1:pos:R:3 gdb_55720=T pbc="F F F"
N        0.05300000       0.27280000      -1.04470000
C       -0.02210000       0.18380000       0.31250000
O        0.65400000       0.85100000       1.06820000
C       -1.09200000      -0.79580000       0.82070000
C       -1.00870000      -2.18530000       0.20710000
C       -2.24120000      -2.87890000      -0.22500000
O       -1.39520000      -2.25620000      -1.18840000
C        0.15280000      -2.96730000       0.55850000
C        1.12630000      -3.59460000       0.87770000
H        0.77440000       0.85360000      -1.43930000
H       -0.45040000      -0.36750000      -1.63750000
H       -0.97780000      -0.85640000       1.90420000
H       -2.07900000      -0.37520000       0.59970000
H       -2.25650000      -3.96610000      -0.25780000
H       -3.20260000      -2.39570000      -0.05650000
H        1.99020000      -4.14800000       1.15370000
