15
Properties=species:S:1:pos:R:3 gdb_129805=T pbc="F F F"
N        0.02990000       1.43640000       0.20340000
C       -0.06840000       0.05000000       0.03320000
C       -1.16430000      -0.78130000      -0.00220000
O       -2.51750000      -0.76500000       0.06310000
C       -2.93650000      -2.11570000      -0.27010000
C       -1.69600000      -3.03570000      -0.06470000
N       -0.66040000      -2.02370000      -0.12290000
N        0.68450000      -2.02590000      -0.12660000
N        1.03100000      -0.75990000      -0.05160000
H        1.00330000       1.71160000       0.13740000
H       -0.50640000       1.95440000      -0.48290000
H       -3.77810000      -2.37500000       0.37280000
H       -3.25950000      -2.12740000      -1.31660000
H       -1.69520000      -3.54180000       0.90610000
H       -1.59370000      -3.77910000      -0.85740000
