19
Properties=species:S:1:pos:R:3 gdb_108912=T pbc="F F F"
C        0.02540000       1.52810000       0.08130000
C       -0.01650000       0.03030000      -0.02090000
C        0.65780000      -0.80960000      -1.15670000
C        0.60140000      -1.81660000       0.02440000
O        0.86010000      -0.69460000       0.92440000
C       -0.92520000      -2.01070000       0.19440000
C       -1.65690000      -3.29700000       0.36820000
O       -3.03380000      -3.12990000       0.65070000
C       -1.34330000      -0.74290000       0.16140000
H        1.04590000       1.89800000      -0.04730000
H       -0.60850000       1.97980000      -0.68860000
H       -0.33940000       1.85590000       1.05990000
H        0.08690000      -1.02250000      -2.06300000
H        1.67550000      -0.47620000      -1.37680000
H        1.27860000      -2.66220000       0.14360000
H       -1.61110000      -3.89080000      -0.55500000
H       -1.15430000      -3.90450000       1.14170000
H       -3.09630000      -2.59170000       1.44720000
H       -2.33810000      -0.32700000       0.22590000
