20
Properties=species:S:1:pos:R:3 gdb_108640=T pbc="F F F"
C        0.20360000       1.55480000      -0.10300000
C        0.04290000       0.06870000      -0.01880000
C       -1.05880000      -0.69260000       0.05060000
C       -2.51410000      -0.34550000       0.10320000
O       -2.72560000       1.02780000       0.38250000
C       -0.67690000      -2.14030000       0.03520000
C        0.03210000      -2.61060000      -1.19010000
N        0.79790000      -2.22260000      -0.00170000
C        1.27330000      -0.82450000      -0.01450000
H        0.83510000       1.92040000       0.71780000
H        0.71800000       1.83400000      -1.03230000
H       -0.75430000       2.06870000      -0.06410000
H       -2.98400000      -0.63160000      -0.85510000
H       -2.99020000      -0.97880000       0.87310000
H       -3.67050000       1.19740000       0.33360000
H       -1.20670000      -2.84530000       0.67350000
H        0.08380000      -3.67010000      -1.42840000
H        0.02500000      -1.94210000      -2.04940000
H        1.92350000      -0.64900000      -0.88240000
H        1.89000000      -0.64530000       0.87810000
