18
Properties=species:S:1:pos:R:3 gdb_20184=T pbc="F F F"
C       -0.00530000       1.58320000       0.00920000
C        1.52470000       1.59560000      -0.07820000
C        2.19340000       0.72440000       0.96340000
C        1.69460000       0.43470000       2.36770000
O        0.29030000       0.26740000       2.47170000
C       -0.27280000      -0.54810000       1.45510000
C        0.03500000       0.01800000       0.07200000
C        1.55140000       0.07100000      -0.22290000
H       -0.47260000       2.10320000       0.84830000
H       -0.45450000       1.92740000      -0.92590000
H        2.10660000       2.32720000      -0.62720000
H        3.27910000       0.77140000       0.91020000
H        2.20850000      -0.47410000       2.73020000
H        1.94520000       1.25090000       3.05430000
H        0.09630000      -1.58560000       1.53390000
H       -1.34950000      -0.55470000       1.65370000
H       -0.56140000      -0.47640000      -0.69730000
H        2.08540000      -0.55070000      -0.93120000
