18
Properties=species:S:1:pos:R:3 gdb_63830=T pbc="F F F"
C        0.29990000       1.49380000       0.00650000
C        0.03870000      -0.00450000      -0.00250000
O       -1.35030000      -0.28970000      -0.04100000
C        0.88580000      -0.85320000      -1.02160000
C        1.52620000      -1.63260000       0.15780000
N        2.90300000      -1.22850000       0.48650000
C        2.80610000      -0.44770000       1.48090000
O        1.58540000      -0.15360000       2.00750000
C        0.64240000      -0.84130000       1.16440000
H        1.36490000       1.72080000       0.09700000
H       -0.05290000       1.93540000      -0.93390000
H       -0.23110000       1.97070000       0.83500000
H       -1.71720000       0.12270000      -0.83090000
H        0.25420000      -1.46750000      -1.66740000
H        1.60370000      -0.29560000      -1.62730000
H        1.44960000      -2.72050000       0.11640000
H        3.63520000       0.03280000       1.98860000
H       -0.10020000      -1.34150000       1.78540000
