19
Properties=species:S:1:pos:R:3 gdb_91112=T pbc="F F F"
C       -0.13360000       1.54080000      -0.05800000
C        0.00930000       0.03460000       0.03080000
O        0.72690000      -0.45160000      -1.12240000
C        1.34660000      -1.66070000      -0.76430000
C        2.60800000      -1.58000000       0.07170000
C        3.02870000      -0.19760000       0.54630000
O        2.00640000       0.26070000       1.43670000
C        0.82400000      -0.50510000       1.22560000
C        1.27370000      -1.88260000       0.71600000
H        0.84330000       2.02280000       0.01280000
H       -0.60510000       1.82190000      -1.00340000
H       -0.76010000       1.90770000       0.76130000
H       -0.98500000      -0.44240000       0.05150000
H        1.22570000      -2.45510000      -1.49310000
H        3.36000000      -2.35190000      -0.04430000
H        3.97280000      -0.23280000       1.10060000
H        3.13850000       0.50140000      -0.29310000
H        0.25560000      -0.51770000       2.15830000
H        1.01320000      -2.80870000       1.21020000
