21
Properties=species:S:1:pos:R:3 gdb_88625=T pbc="F F F"
C       -0.13500000       1.46430000      -0.13370000
C       -0.07340000      -0.02350000       0.10070000
O        1.20030000      -0.66500000      -0.02530000
C        0.55990000      -0.67440000       1.26260000
C        1.25050000       0.05760000       2.36460000
C        0.78230000       0.09190000       3.79910000
C        0.18840000      -1.25210000       4.24650000
C        1.53210000      -1.95550000       3.86340000
C        2.09970000      -0.59820000       3.42740000
H        0.67940000       1.99310000       0.36490000
H       -0.06960000       1.67920000      -1.20560000
H       -1.08670000       1.86680000       0.23030000
H       -0.88430000      -0.57890000      -0.37800000
H        0.16440000      -1.65320000       1.53360000
H        1.67370000       1.00620000       2.04730000
H        0.62500000       1.03640000       4.30720000
H        0.00650000      -1.28600000       5.32280000
H       -0.72170000      -1.58430000       3.73730000
H        2.04330000      -2.35850000       4.74010000
H        1.49410000      -2.73940000       3.10070000
H        3.11640000      -0.26590000       3.60110000
