13
Properties=species:S:1:pos:R:3 gdb_27031=T pbc="F F F"
O        0.35580000       1.29580000       0.04510000
C        0.15210000      -0.02830000       0.02570000
C       -0.99290000      -0.76820000      -0.01270000
N       -0.56430000      -2.12120000      -0.01550000
C        0.80800000      -2.22200000       0.02020000
O        1.51150000      -3.20830000       0.02900000
N        1.22780000      -0.87700000       0.04520000
C       -2.31650000      -0.32080000      -0.04380000
C       -3.45400000       0.08550000      -0.07050000
H       -0.50630000       1.73160000       0.02670000
H       -1.16640000      -2.92440000      -0.04020000
H        2.19550000      -0.60590000       0.07530000
H       -4.45490000       0.43860000      -0.09380000
