12
Properties=species:S:1:pos:R:3 gdb_130494=T pbc="F F F"
O       -0.07440000       1.22590000       0.00940000
N        1.14960000       1.83260000       0.00090000
C        2.01210000       0.83230000      -0.01270000
C        3.43130000       0.79480000      -0.02650000
C        3.99100000      -0.45070000      -0.03860000
N        3.29790000      -1.64600000      -0.03830000
C        1.99580000      -1.63450000      -0.02580000
C        1.28370000      -0.39670000      -0.01230000
N       -0.00830000      -0.12840000       0.00150000
H        4.02880000       1.69720000      -0.02740000
H        5.07040000      -0.56290000      -0.04950000
H        1.46580000      -2.58330000      -0.02580000
