15
Properties=species:S:1:pos:R:3 gdb_127589=T pbc="F F F"
C       -0.48700000       1.43490000      -0.32990000
N       -0.12340000       0.05720000      -0.06280000
N        0.59250000      -0.66160000      -0.91740000
C        0.76840000      -1.82270000      -0.28320000
C        0.13610000      -1.74790000       0.96570000
C       -0.01000000      -2.77080000       2.05840000
C        1.06510000      -3.76260000       2.05220000
N        1.90880000      -4.55110000       2.03570000
N       -0.42000000      -0.53920000       1.08500000
H        0.20400000       2.11860000       0.17190000
H       -0.43750000       1.58910000      -1.40690000
H       -1.49900000       1.61150000       0.03570000
H        1.32320000      -2.63070000      -0.73180000
H       -0.02900000      -2.26720000       3.03030000
H       -0.96550000      -3.30320000       1.96680000
