18
Properties=species:S:1:pos:R:3 gdb_86602=T pbc="F F F"
C       -0.10520000       1.49170000      -0.01050000
N       -0.01200000       0.05740000      -0.08130000
C       -1.02440000      -1.00060000      -0.06100000
C        0.14410000      -2.03270000      -0.12660000
C        0.22230000      -2.91320000      -1.33970000
C        0.99890000      -4.15720000      -1.34170000
O       -0.42810000      -4.18500000      -1.25720000
C        1.07110000      -0.78160000      -0.13680000
O        2.25610000      -0.57610000      -0.18050000
H        0.91140000       1.89100000      -0.03950000
H       -0.67060000       1.90050000      -0.85680000
H       -0.58760000       1.81880000       0.91890000
H       -1.62370000      -1.03070000       0.85550000
H       -1.69070000      -0.99820000      -0.93140000
H        0.25080000      -2.63170000       0.78090000
H        0.07890000      -2.40270000      -2.29400000
H        1.42180000      -4.52670000      -2.27420000
H        1.52810000      -4.45890000      -0.43920000
