12
Properties=species:S:1:pos:R:3 gdb_130811=T pbc="F F F"
O       -0.09370000      -0.01430000      -0.00080000
C        0.00700000       1.19150000       0.00710000
C        1.25670000       1.90510000      -0.00100000
C        2.28600000       2.53850000      -0.00720000
C        3.48810000       3.28250000      -0.01450000
N        4.68710000       2.69540000      -0.03210000
N        5.51500000       3.75250000      -0.03300000
C        4.81470000       4.91000000      -0.01630000
N        3.52630000       4.65510000      -0.00420000
H       -0.88470000       1.85000000       0.02190000
H        6.51200000       3.60440000      -0.04500000
H        5.27960000       5.88420000      -0.01390000
