23
Properties=species:S:1:pos:R:3 gdb_60434=T pbc="F F F"
C        0.02320000       1.57700000      -0.02890000
C        0.03390000       0.05110000       0.06730000
O        0.67790000      -0.38410000       1.26410000
C       -1.37070000      -0.55370000      -0.06640000
C       -1.37080000      -2.08480000      -0.07090000
C       -2.77660000      -2.68140000      -0.10660000
C       -2.80290000      -4.20360000      -0.19030000
C       -4.17110000      -4.85700000      -0.08200000
O       -1.79540000      -4.85660000      -0.33620000
H        1.03510000       1.97230000       0.09480000
H       -0.36630000       1.91220000      -0.99560000
H       -0.61200000       2.01150000       0.75390000
H        0.66520000      -0.35160000      -0.73530000
H        0.19460000      -0.00510000       2.00710000
H       -1.99090000      -0.17850000       0.76300000
H       -1.83550000      -0.17330000      -0.98630000
H       -0.80460000      -2.45540000      -0.93260000
H       -0.83660000      -2.44840000       0.81180000
H       -3.36290000      -2.37370000       0.77120000
H       -3.34430000      -2.29860000      -0.96870000
H       -4.87390000      -4.41430000      -0.79620000
H       -4.08550000      -5.92960000      -0.26020000
H       -4.58710000      -4.68780000       0.91820000
