19
Properties=species:S:1:pos:R:3 gdb_78658=T pbc="F F F"
C        0.01040000       1.44440000       0.07370000
C        0.00620000      -0.05290000      -0.01740000
C       -0.93290000      -0.92710000       0.81910000
C        0.57440000      -1.07900000       0.94570000
C        0.44350000      -2.11460000      -0.24400000
C       -1.05720000      -2.28590000       0.12940000
O       -1.32730000      -3.35820000       1.00550000
C        0.45390000      -0.89390000      -1.20310000
O       -0.40140000      -0.87950000      -2.32530000
H        0.97800000       1.85550000      -0.23590000
H       -0.76040000       1.87860000      -0.57210000
H       -0.18350000       1.78100000       1.09750000
H       -1.62230000      -0.47620000       1.52300000
H        1.26370000      -0.95980000       1.76840000
H        1.06420000      -2.99200000      -0.41890000
H       -1.75950000      -2.38550000      -0.70110000
H       -0.76560000      -3.24480000       1.78200000
H        1.48340000      -0.62280000      -1.48170000
H        0.00050000      -1.40550000      -3.02420000
