15
Properties=species:S:1:pos:R:3 gdb_11369=T pbc="F F F"
O        0.06640000       1.36330000       0.37180000
C        0.03930000       0.00080000      -0.03970000
C       -1.35120000      -0.54570000      -0.08920000
C       -1.97310000      -1.26830000      -1.03050000
C       -3.36500000      -1.58980000      -0.55420000
C       -3.45400000      -0.87940000       0.81060000
O       -4.39690000      -0.80180000       1.56190000
N       -2.20020000      -0.32580000       1.00950000
H       -0.41280000       1.87750000      -0.28710000
H        0.52590000      -0.15320000      -1.01230000
H        0.62980000      -0.53400000       0.71380000
H       -1.53760000      -1.59180000      -1.96410000
H       -4.16130000      -1.22140000      -1.21100000
H       -3.54700000      -2.66260000      -0.41710000
H       -1.98490000       0.30110000       1.76800000
