21
Properties=species:S:1:pos:R:3 gdb_91447=T pbc="F F F"
C       -0.10110000       1.52640000       0.00640000
C        0.06560000       0.00800000       0.03740000
C        1.01510000      -0.56440000      -1.07940000
C        2.01090000      -1.36860000      -0.21590000
C        2.29270000      -0.35940000       0.94540000
C        0.77380000      -0.56230000       1.30400000
C        0.18720000      -0.28870000       2.66570000
C        1.05310000      -1.99780000       0.80940000
O        0.78080000      -3.09840000       1.19040000
H        0.85390000       2.04610000       0.13690000
H       -0.51780000       1.84320000      -0.95610000
H       -0.78160000       1.87230000       0.79120000
H       -0.92890000      -0.44620000      -0.04480000
H        0.48670000      -1.18700000      -1.80610000
H        1.52160000       0.23710000      -1.62690000
H        2.79620000      -1.93450000      -0.71240000
H        2.96350000      -0.75360000       1.71150000
H        2.60210000       0.64490000       0.64770000
H        0.20540000       0.77890000       2.90850000
H       -0.85470000      -0.62440000       2.71030000
H        0.73870000      -0.82240000       3.44590000
