21
Properties=species:S:1:pos:R:3 gdb_118739=T pbc="F F F"
C       -0.17120000       1.54750000       0.24220000
C       -0.04080000       0.02630000       0.12750000
C       -1.39500000      -0.66880000      -0.04960000
C       -1.30720000      -2.18690000      -0.19400000
O       -0.49650000      -2.44790000      -1.31990000
C       -0.92820000      -2.93820000       1.13290000
C       -2.39740000      -3.36840000       1.24790000
O       -3.05690000      -3.83560000       2.13060000
C       -2.71190000      -2.88550000      -0.17430000
H        0.80770000       2.02180000       0.36280000
H       -0.63890000       1.97340000      -0.65240000
H       -0.78700000       1.83230000       1.10300000
H        0.60080000      -0.23380000      -0.71990000
H        0.45970000      -0.36490000       1.02290000
H       -2.05070000      -0.43530000       0.79950000
H       -1.89380000      -0.27670000      -0.94540000
H       -0.39820000      -3.40020000      -1.41810000
H       -0.26950000      -3.79700000       0.95580000
H       -0.51870000      -2.35840000       1.96360000
H       -3.60120000      -2.26270000      -0.30210000
H       -2.76980000      -3.72220000      -0.88080000
