21
Properties=species:S:1:pos:R:3 gdb_65202=T pbc="F F F"
C        0.67050000       1.19700000       1.32680000
C        0.05810000       0.23410000       0.32580000
C        0.56760000       0.25740000      -1.09460000
C        0.91610000      -0.89880000      -0.18850000
C       -1.38350000      -0.09570000       0.63480000
O       -2.24400000       1.07270000       0.84450000
C       -3.25500000       0.48430000       0.02620000
C       -2.80000000       0.39090000      -1.38870000
C       -2.36920000      -0.67000000      -0.38580000
H        1.72420000       1.38320000       1.09760000
H        0.14000000       2.15360000       1.31590000
H        0.61510000       0.79590000       2.34600000
H       -0.12570000       0.06150000      -1.90280000
H        1.34650000       0.97330000      -1.33600000
H        1.92940000      -0.98070000       0.19070000
H        0.44030000      -1.85330000      -0.39170000
H       -1.41560000      -0.69440000       1.55720000
H       -4.28170000       0.53230000       0.36960000
H       -3.54260000       0.04080000      -2.09960000
H       -2.10410000       1.13030000      -1.77040000
H       -2.60360000      -1.71840000      -0.50900000
