20
Properties=species:S:1:pos:R:3 gdb_13504=T pbc="F F F"
C        0.05200000       1.48760000      -0.13160000
C        0.04850000      -0.02390000       0.10300000
O        0.66040000      -0.35660000       1.34920000
C       -1.35180000      -0.61890000       0.01400000
C       -2.18150000      -0.50050000      -1.29750000
C       -2.70670000      -1.93870000      -1.03970000
C       -1.50690000      -2.16330000      -0.07620000
O       -0.37410000      -2.70320000      -0.73360000
H        1.06910000       1.87950000      -0.04450000
H       -0.33390000       1.74000000      -1.12440000
H       -0.57590000       1.99990000       0.60930000
H        0.67780000      -0.51240000      -0.64700000
H        0.17100000       0.10020000       2.04260000
H       -1.94980000      -0.25280000       0.85960000
H       -2.91490000       0.30600000      -1.36320000
H       -1.53330000      -0.46160000      -2.17700000
H       -3.66290000      -1.94080000      -0.50790000
H       -2.77360000      -2.61890000      -1.89320000
H       -1.70770000      -2.69740000       0.86130000
H       -0.57060000      -3.61770000      -0.95900000
