18
Properties=species:S:1:pos:R:3 gdb_47876=T pbc="F F F"
O       -0.07050000      -0.01060000       0.02240000
C       -0.06070000       1.19560000       0.04710000
C       -1.30390000       2.05380000       0.15190000
C       -1.82130000       2.46790000      -1.24580000
C       -0.70500000       2.95710000      -2.18960000
N        0.30760000       3.74890000      -1.48350000
C        1.50640000       3.00860000      -1.10620000
C        1.29850000       1.94430000      -0.02870000
O        2.18180000       1.63430000       0.73190000
H       -2.07020000       1.48420000       0.68370000
H       -1.06640000       2.95760000       0.72170000
H       -2.33310000       1.61870000      -1.71070000
H       -2.56370000       3.26000000      -1.10730000
H       -0.24290000       2.09120000      -2.69430000
H       -1.15100000       3.56900000      -2.97940000
H        0.58370000       4.54550000      -2.04140000
H        1.96510000       2.46550000      -1.95870000
H        2.26270000       3.69910000      -0.72380000
