19
Properties=species:S:1:pos:R:3 gdb_10926=T pbc="F F F"
C       -0.69840000       1.45070000      -0.60160000
C       -0.25150000       0.01860000      -0.34640000
N        1.04640000      -0.47130000      -0.93520000
C        1.86260000       0.38820000      -1.77170000
C        1.54620000      -0.83820000       0.38350000
C        1.57030000       0.32550000       1.36250000
C        0.27180000      -0.37510000       1.04390000
O       -0.48090000      -1.04810000       1.98850000
H        0.03810000       2.18620000      -0.26680000
H       -0.89100000       1.62440000      -1.66560000
H       -1.63450000       1.64200000      -0.06550000
H       -1.05190000      -0.67010000      -0.64550000
H        2.20270000       1.32350000      -1.29370000
H        2.75580000      -0.16720000      -2.07810000
H        1.31220000       0.65220000      -2.68020000
H        2.13170000      -1.73860000       0.53470000
H        1.96910000       0.07020000       2.33990000
H        1.77930000       1.34070000       1.03720000
H       -0.82130000      -0.40420000       2.61860000
