18
Properties=species:S:1:pos:R:3 gdb_111713=T pbc="F F F"
C       -0.27800000       1.36540000       0.10400000
N        0.20350000      -0.00240000      -0.08940000
C        0.79520000      -0.56610000       1.08440000
C        0.16290000      -1.63430000       1.92020000
N       -0.66490000      -2.47110000       1.03510000
C        0.56060000      -2.94430000       0.30890000
C        1.43890000      -1.95240000       1.08750000
C        2.78510000      -2.18040000       1.48060000
N        3.88040000      -2.36710000       1.80970000
H        0.57020000       2.02600000       0.31290000
H       -0.74550000       1.71120000      -0.82180000
H       -1.00780000       1.48070000       0.92250000
H       -0.57330000      -0.59710000      -0.36690000
H        1.38850000       0.14550000       1.65190000
H        0.02620000      -1.60480000       2.99520000
H       -1.10790000      -3.23070000       1.53780000
H        0.81950000      -3.97890000       0.54610000
H        0.51970000      -2.81490000      -0.77690000
