19
Properties=species:S:1:pos:R:3 gdb_91023=T pbc="F F F"
C       -0.17830000       1.52450000      -0.15870000
C        0.07180000       0.04340000       0.04160000
O        1.12320000      -0.48320000      -0.81310000
C        1.78020000      -1.11870000       0.29320000
C        2.89860000      -0.27380000       0.87660000
C        3.01550000      -0.58200000       2.35260000
C        1.91270000       0.32750000       1.87820000
O        1.83140000       1.65060000       2.27920000
C        0.76090000      -0.50320000       1.31680000
H        0.71210000       2.11640000       0.05700000
H       -0.48460000       1.70640000      -1.19410000
H       -0.98660000       1.86430000       0.49830000
H       -0.85600000      -0.51580000      -0.15020000
H        1.94280000      -2.18910000       0.13550000
H        3.68770000       0.20490000       0.31070000
H        2.81110000      -1.57960000       2.73640000
H        3.82690000      -0.06190000       2.85170000
H        1.63450000       1.67270000       3.22200000
H        0.13800000      -1.06930000       2.01220000
