15
Properties=species:S:1:pos:R:3 gdb_49942=T pbc="F F F"
N       -0.35910000       1.04170000      -0.73730000
C       -0.15590000      -0.08650000      -0.19430000
N       -1.10750000      -0.67610000       0.64220000
C       -2.50900000      -0.57800000       0.34690000
C       -1.80470000      -1.92550000       0.24810000
C       -1.57020000      -2.46530000      -1.07070000
C       -1.35660000      -2.92730000      -2.15910000
C       -1.98270000      -2.90210000       1.29680000
C       -2.15350000      -3.71890000       2.16040000
H        0.47440000       1.34940000      -1.23680000
H        0.76290000      -0.67860000      -0.25290000
H       -3.16560000      -0.41250000       1.19510000
H       -2.78930000      -0.10010000      -0.58740000
H       -1.17890000      -3.33400000      -3.12410000
H       -2.29600000      -4.44000000       2.92710000
