17
Properties=species:S:1:pos:R:3 gdb_102854=T pbc="F F F"
O       -0.08680000       1.60560000       0.04240000
C        0.11770000       0.19970000       0.10650000
C       -1.25750000      -0.45700000      -0.01950000
C       -2.14820000      -0.05490000       1.18290000
C       -3.49430000      -0.61440000       1.11770000
N       -4.56300000      -1.05040000       1.07080000
N       -1.87460000      -0.09640000      -1.28110000
C       -2.15360000      -1.01460000      -2.25090000
O       -1.97340000      -2.20830000      -2.15140000
H        0.76780000       2.04550000       0.03710000
H        0.75360000      -0.15230000      -0.71700000
H        0.58890000      -0.09580000       1.05620000
H       -1.13810000      -1.54270000      -0.04280000
H       -1.67290000      -0.38620000       2.11310000
H       -2.21550000       1.03660000       1.23290000
H       -1.94870000       0.88570000      -1.49810000
H       -2.57620000      -0.53770000      -3.15600000
