16
Properties=species:S:1:pos:R:3 gdb_74658=T pbc="F F F"
N        0.04550000       1.34140000       0.11680000
C       -0.05320000      -0.02540000       0.04860000
N       -1.16050000      -0.65600000       0.00510000
C       -1.02330000      -2.08840000       0.02230000
C        0.03930000      -2.72140000       0.97960000
N        0.05790000      -3.92050000       0.06290000
C        0.09190000      -2.73130000      -0.86520000
C        1.10460000      -2.03420000       0.08380000
O        1.17520000      -0.61080000       0.08230000
H        0.90250000       1.73410000      -0.24040000
H       -0.79690000       1.82280000      -0.15680000
H       -1.98400000      -2.60080000      -0.00240000
H        0.01130000      -2.80690000       2.06550000
H        0.98540000      -4.35840000       0.09190000
H        0.12570000      -2.82840000      -1.95020000
H        2.13040000      -2.40640000       0.11490000
