20
Properties=species:S:1:pos:R:3 gdb_93284=T pbc="F F F"
C       -0.68780000       1.22830000      -0.00710000
C        0.08410000      -0.08570000      -0.08500000
C        1.25220000      -0.04750000      -1.10610000
N        2.19620000      -1.01170000      -0.56630000
C        2.04980000      -1.24460000       0.77690000
O        2.81160000      -1.87140000       1.48490000
C        0.77140000      -0.56550000       1.19410000
C        0.81950000       0.19120000       2.50920000
C        0.06030000      -1.09790000       2.40910000
H       -0.03630000       2.05600000       0.29120000
H       -1.12500000       1.47830000      -0.97970000
H       -1.50920000       1.16700000       0.71420000
H       -0.60520000      -0.87680000      -0.40760000
H        0.92530000      -0.32650000      -2.11280000
H        1.68850000       0.96150000      -1.16200000
H        3.06880000      -1.23780000      -1.01740000
H        1.76580000       0.17900000       3.03820000
H        0.25840000       1.11590000       2.58260000
H       -1.02430000      -1.05660000       2.41120000
H        0.49610000      -1.97720000       2.87080000
