23
Properties=species:S:1:pos:R:3 gdb_94707=T pbc="F F F"
C        0.09990000       1.54550000       0.05960000
C        0.01740000       0.02850000      -0.01200000
C        0.65780000      -0.54840000      -1.28420000
C        0.98720000      -2.03370000      -1.15160000
C        2.20980000      -2.45910000      -0.36480000
C        0.83560000      -2.73150000       0.18660000
C        0.32480000      -4.15500000       0.23340000
C        0.37280000      -1.86030000       1.34380000
O        0.65740000      -0.48850000       1.15250000
H        1.14610000       1.86570000       0.08990000
H       -0.37490000       1.99850000      -0.81630000
H       -0.39850000       1.91690000       0.95900000
H       -1.04280000      -0.28010000       0.01660000
H       -0.03030000      -0.39170000      -2.12250000
H        1.56850000       0.01760000      -1.51820000
H        0.75980000      -2.63570000      -2.02670000
H        2.79400000      -3.29780000      -0.72930000
H        2.78820000      -1.66850000       0.10280000
H        0.68450000      -4.73190000      -0.62420000
H        0.66180000      -4.66960000       1.14200000
H       -0.77130000      -4.18770000       0.22160000
H       -0.71340000      -1.99970000       1.49350000
H        0.87570000      -2.15140000       2.27350000
