18
Properties=species:S:1:pos:R:3 gdb_127081=T pbc="F F F"
C        0.25580000       1.08900000      -0.48310000
N        0.01720000      -0.12750000       0.29530000
C        0.45930000       0.01240000       1.68500000
C       -1.29330000      -0.62980000       0.16940000
C       -1.62900000      -1.88930000      -0.29120000
N       -0.82340000      -2.95670000      -0.66080000
N       -2.97790000      -1.90950000      -0.22300000
N       -3.46920000      -0.72060000       0.24280000
N       -2.44480000       0.03490000       0.48430000
H        1.32530000       1.32450000      -0.46490000
H       -0.04460000       0.92330000      -1.52090000
H       -0.29910000       1.95880000      -0.09870000
H       -0.07670000       0.80910000       2.22500000
H        0.29930000      -0.92950000       2.21590000
H        1.53010000       0.24230000       1.70290000
H        0.14010000      -2.64150000      -0.70750000
H       -1.08700000      -3.39520000      -1.53510000
H       -3.61580000      -2.65750000      -0.43940000
