13
Properties=species:S:1:pos:R:3 gdb_130468=T pbc="F F F"
O       -0.03120000       1.27030000       0.00940000
C        1.21250000       1.75810000      -0.00010000
C        2.11170000       0.72050000      -0.01450000
C        3.51820000       0.52800000      -0.02920000
C        3.96160000      -0.76350000      -0.04060000
N        3.15230000      -1.87980000      -0.03890000
C        1.85760000      -1.73260000      -0.02550000
C        1.26030000      -0.43380000      -0.01250000
N       -0.02580000      -0.11250000       0.00180000
H        1.29790000       2.83300000       0.00500000
H        4.21260000       1.35990000      -0.03140000
H        5.02530000      -0.97860000      -0.05220000
H        1.23440000      -2.62370000      -0.02430000
