17
Properties=species:S:1:pos:R:3 gdb_80125=T pbc="F F F"
O       -0.00000000       1.35790000      -0.12520000
C       -0.04880000      -0.02010000      -0.00780000
C       -0.40080000      -0.73550000       1.26110000
C       -1.11430000       0.07040000       2.29180000
C       -2.28880000       0.53570000       1.85090000
C       -2.60660000       0.06580000       0.45000000
C       -1.38790000      -0.76040000       0.04940000
C       -1.55580000      -1.97840000      -0.75870000
O       -2.61270000      -2.38480000      -1.18220000
H       -0.42290000       1.73570000       0.65810000
H        0.71430000      -0.48290000      -0.62690000
H        0.17080000      -1.61260000       1.54660000
H       -0.68870000       0.25780000       3.27080000
H       -2.95400000       1.18160000       2.41290000
H       -3.51360000      -0.54730000       0.40520000
H       -2.76170000       0.90790000      -0.23690000
H       -0.60610000      -2.52410000      -0.96950000
