20
Properties=species:S:1:pos:R:3 gdb_64762=T pbc="F F F"
C       -0.00640000       1.56180000      -0.01410000
C        0.01080000       0.02650000       0.00860000
C       -1.45330000      -0.51620000       0.01650000
C       -2.20160000      -0.14640000       1.21620000
N       -2.77640000       0.15860000       2.17170000
C        0.78300000      -0.58010000      -1.20330000
C        1.60120000      -1.77360000      -0.64920000
C        1.62860000      -1.50260000       0.83580000
C        0.78190000      -0.53870000       1.18890000
H        1.01410000       1.95430000       0.01440000
H       -0.48830000       1.93680000      -0.92440000
H       -0.54990000       1.96770000       0.84490000
H       -1.99460000      -0.13600000      -0.85820000
H       -1.44280000      -1.60900000      -0.05810000
H        0.11620000      -0.86300000      -2.02340000
H        1.46620000       0.17860000      -1.59670000
H        1.12480000      -2.74130000      -0.85990000
H        2.60230000      -1.82930000      -1.09100000
H        2.25350000      -2.06510000       1.52110000
H        0.60220000      -0.19310000       2.20110000
