19
Properties=species:S:1:pos:R:3 gdb_76469=T pbc="F F F"
O        0.08010000       1.39090000      -0.01590000
C        0.03490000      -0.00760000      -0.04110000
C       -0.44940000      -0.71820000       1.22890000
O       -0.90070000       0.13260000       2.25900000
C       -1.27580000      -0.72040000      -0.01130000
C       -2.71390000      -0.23030000      -0.27160000
C       -2.51160000      -0.71520000      -1.74110000
C       -1.92040000      -1.84740000      -0.84540000
C       -3.17500000      -1.68230000       0.06630000
H       -0.40950000       1.65370000       0.77610000
H        0.87460000      -0.42190000      -0.59300000
H        0.03890000      -1.63280000       1.56500000
H       -0.14230000       0.34620000       2.81510000
H       -3.16030000       0.70440000       0.06510000
H       -3.42020000      -0.96470000      -2.29630000
H       -1.80380000      -0.14830000      -2.34920000
H       -1.45040000      -2.77650000      -1.17060000
H       -3.07330000      -1.99810000       1.10690000
H       -4.12970000      -1.99860000      -0.36370000
