20
Properties=species:S:1:pos:R:3 gdb_88631=T pbc="F F F"
O       -0.24440000       1.20350000      -0.71510000
C       -0.10070000      -0.08590000      -0.19380000
C       -0.11770000      -0.29590000       1.29510000
C       -1.31370000      -0.70940000       0.44670000
C       -2.58120000       0.07840000       0.53860000
C       -3.92630000      -0.42740000       0.19490000
C       -4.11460000      -1.90260000       0.54080000
C       -3.65290000      -1.52860000       1.97150000
N       -3.57240000      -0.06060000       1.63580000
H        0.54640000       1.70460000      -0.49140000
H        0.53000000      -0.74440000      -0.79100000
H        0.51210000      -1.06410000       1.73030000
H       -0.25190000       0.58930000       1.90830000
H       -1.42040000      -1.77400000       0.26970000
H       -2.43500000       1.13110000       0.31500000
H       -4.62730000       0.16380000      -0.38740000
H       -5.16140000      -2.21010000       0.50940000
H       -3.52510000      -2.62830000      -0.02910000
H       -4.41790000      -1.68590000       2.73410000
H       -2.70950000      -1.95410000       2.32710000
