17
Properties=species:S:1:pos:R:3 gdb_103117=T pbc="F F F"
N        0.21350000       1.40360000       0.02120000
C        0.04610000      -0.01970000       0.01240000
C       -0.52410000      -0.72410000       1.24420000
C       -1.02700000       0.05240000       2.33610000
N       -1.44460000       0.68150000       3.21330000
C       -1.29410000      -0.68900000      -0.09950000
O       -2.37020000       0.18150000      -0.18760000
C       -1.49330000      -1.98570000      -0.83630000
O       -2.64050000      -2.60300000      -0.26210000
H        0.21370000       1.75160000      -0.93350000
H       -0.57440000       1.84530000       0.48660000
H        0.88470000      -0.54050000      -0.44240000
H       -0.06430000      -1.66290000       1.53320000
H       -3.14760000      -0.30920000       0.10960000
H       -1.65210000      -1.76710000      -1.90250000
H       -0.60040000      -2.62240000      -0.74500000
H       -2.95710000      -3.28630000      -0.85980000
