17
Properties=species:S:1:pos:R:3 gdb_2930=T pbc="F F F"
C       -0.04880000       1.37770000      -0.09950000
O       -0.02300000       0.00020000       0.18530000
C       -1.28520000      -0.64020000       0.06370000
C       -1.64930000      -0.94370000      -1.41970000
C       -1.34690000      -2.41410000      -1.57040000
C       -1.08740000      -2.99640000      -0.40200000
C       -1.16400000      -2.02380000       0.74740000
H        0.96020000       1.76220000       0.06980000
H       -0.33170000       1.59240000      -1.14130000
H       -0.74930000       1.91520000       0.56030000
H       -2.04950000      -0.01220000       0.54430000
H       -2.70620000      -0.72970000      -1.62980000
H       -1.06420000      -0.31720000      -2.10280000
H       -1.36120000      -2.91560000      -2.53190000
H       -0.86100000      -4.04740000      -0.26120000
H       -0.27710000      -2.03530000       1.38980000
H       -2.02780000      -2.23220000       1.39240000
