15
Properties=species:S:1:pos:R:3 gdb_129971=T pbc="F F F"
N       -0.09470000       1.31140000      -0.36040000
C       -0.03400000      -0.02810000      -0.14460000
N       -1.00030000      -0.89580000      -0.26380000
C       -0.33790000      -2.06760000       0.01660000
N        0.94340000      -1.95770000       0.28280000
O        1.15100000      -0.54800000       0.18310000
N       -1.00860000      -3.27400000       0.08500000
C       -1.54020000      -3.87660000      -1.13470000
C       -0.37310000      -4.48070000      -0.42550000
H        0.63390000       1.86690000       0.05900000
H       -1.02050000       1.70760000      -0.32980000
H       -2.52900000      -4.31310000      -1.03740000
H       -1.34970000      -3.36180000      -2.07220000
H        0.60760000      -4.37070000      -0.87870000
H       -0.50680000      -5.36570000       0.18830000
