20
Properties=species:S:1:pos:R:3 gdb_68856=T pbc="F F F"
C       -0.07730000       1.53760000      -0.05110000
C       -0.04150000       0.02960000       0.00120000
C        1.26910000      -0.70870000      -0.22850000
C        0.61010000      -0.73200000       1.13070000
O        1.18280000      -0.03050000       2.19290000
C       -0.24910000      -1.95840000       1.44600000
N       -1.36760000      -1.98230000       0.47290000
C       -2.31880000      -0.87740000       0.66590000
C       -1.26260000      -0.76670000      -0.36980000
H        0.80360000       1.95800000       0.44140000
H       -0.10010000       1.90040000      -1.08460000
H       -0.96440000       1.92650000       0.46010000
H        1.27390000      -1.61500000      -0.82740000
H        2.15480000      -0.08870000      -0.32470000
H        2.02150000      -0.44920000       2.41300000
H        0.31150000      -2.89600000       1.34810000
H       -0.62480000      -1.89640000       2.47320000
H       -3.34360000      -1.10380000       0.38570000
H       -2.21280000      -0.26130000       1.55730000
H       -1.50870000      -0.89570000      -1.42180000
