12
Properties=species:S:1:pos:R:3 gdb_20432=T pbc="F F F"
C       -0.16550000       1.30800000      -0.30840000
C        1.26130000       1.01800000       0.01710000
N        0.24870000      -0.02560000       0.13220000
C       -0.12110000      -0.49200000       1.36880000
N        0.68460000      -0.77940000       2.35740000
O       -0.14150000      -1.29950000       3.30940000
N       -1.44260000      -1.28520000       2.83740000
N       -1.43770000      -0.80530000       1.67590000
H       -0.73160000       1.91380000       0.39330000
H       -0.49280000       1.36230000      -1.34100000
H        1.98190000       0.86700000      -0.77960000
H        1.66440000       1.42240000       0.94100000
