18
Properties=species:S:1:pos:R:3 gdb_31102=T pbc="F F F"
N        0.33100000       1.46930000       0.17560000
C        0.00110000       0.09360000       0.18860000
C       -1.13950000      -0.62070000       0.45320000
C       -0.85790000      -2.00950000       0.23420000
C       -1.77330000      -3.17820000       0.41880000
O       -1.62780000      -4.16790000      -0.61380000
C        0.46820000      -2.09110000      -0.15380000
N        1.26610000      -3.21640000      -0.40830000
N        0.97730000      -0.82130000      -0.18080000
H       -0.43880000       2.02480000      -0.17890000
H        0.55060000       1.82000000       1.10390000
H       -2.08390000      -0.20510000       0.77400000
H       -1.56650000      -3.72960000       1.34480000
H       -2.81570000      -2.83140000       0.48220000
H       -1.73120000      -3.70040000      -1.45040000
H        0.66040000      -4.02320000      -0.52530000
H        1.83140000      -3.11550000      -1.24530000
H        1.90940000      -0.55760000      -0.45200000
