19
Properties=species:S:1:pos:R:3 gdb_38309=T pbc="F F F"
C       -0.06780000       1.52260000       0.09150000
C        1.48930000       1.44110000       0.02150000
C        1.33390000       0.12310000       0.84610000
C       -0.00310000      -0.02670000       0.05510000
C        0.37470000      -0.45410000      -1.41070000
O       -0.09890000       0.48690000      -2.38140000
C        0.95890000       1.45370000      -2.52120000
C        1.94270000       1.02060000      -1.41960000
O        1.77870000      -0.40400000      -1.54160000
H       -0.39420000       1.88730000       1.06890000
H       -0.62900000       2.03160000      -0.68990000
H        2.08630000       2.26740000       0.41320000
H        2.09360000      -0.65070000       0.75090000
H        1.14230000       0.34410000       1.89820000
H       -0.82530000      -0.61800000       0.46240000
H        0.01800000      -1.44950000      -1.68100000
H        1.41250000       1.36040000      -3.51440000
H        0.56230000       2.46570000      -2.39680000
H        2.98590000       1.26540000      -1.62130000
