19
Properties=species:S:1:pos:R:3 gdb_106197=T pbc="F F F"
C        0.08570000       1.32120000       0.17430000
O       -0.03060000      -0.04390000      -0.19560000
C       -1.30890000      -0.52820000      -0.08640000
C       -2.00900000      -0.90510000       1.20860000
C       -3.45890000      -0.46050000       1.19670000
C       -3.72600000      -0.58700000      -0.29350000
C       -2.91370000      -1.72420000      -0.88870000
C       -2.47440000      -0.28860000      -1.09680000
C       -1.75290000      -1.94800000       0.11260000
H        1.13430000       1.59810000       0.04610000
H       -0.53480000       1.96740000      -0.46240000
H       -0.20670000       1.47810000       1.22160000
H       -1.41790000      -0.96410000       2.11480000
H       -4.10760000      -1.11610000       1.78900000
H       -3.58310000       0.56740000       1.55740000
H       -4.69580000      -0.35260000      -0.71790000
H       -3.28960000      -2.43600000      -1.61040000
H       -2.43510000       0.29330000      -2.00740000
H       -1.17330000      -2.84850000       0.25780000
