19
Properties=species:S:1:pos:R:3 gdb_58705=T pbc="F F F"
C        0.00960000       1.49620000       0.26510000
C       -0.09090000      -0.01400000       0.06280000
O        0.55900000      -0.72650000       1.10500000
C       -1.55590000      -0.51230000      -0.10040000
C       -1.69170000      -2.07000000      -0.05690000
C       -2.29150000      -1.88900000       1.35780000
N       -2.41670000      -0.43330000       1.10280000
C       -2.15370000       0.13140000      -1.28030000
N       -2.59750000       0.63030000      -2.22410000
H        1.05830000       1.78450000       0.37230000
H       -0.42120000       2.04060000      -0.57860000
H       -0.52240000       1.81170000       1.17240000
H        0.44140000      -0.29350000      -0.85440000
H        0.34330000      -0.30040000       1.94100000
H       -2.39330000      -2.45970000      -0.79380000
H       -0.74540000      -2.60520000      -0.11430000
H       -3.25210000      -2.37700000       1.54870000
H       -1.58770000      -2.15890000       2.15200000
H       -2.10710000       0.19880000       1.83260000
