13
Properties=species:S:1:pos:R:3 gdb_271=T pbc="F F F"
N       -0.11550000       0.95950000      -0.04180000
H       -0.32570000      -0.03600000       0.05880000
H        0.88990000       1.04280000      -0.20370000
H       -0.61520000       1.31760000      -0.86170000
C       -0.51310000       1.67550000       1.28470000
C        0.16330000       1.07590000       2.47550000
C       -0.82950000       1.31180000       3.76780000
O       -2.02930000       1.34170000       3.43750000
O       -0.22950000       1.38770000       4.83390000
H       -0.28370000       2.72940000       1.11460000
H       -1.59190000       1.52770000       1.41160000
H        0.22640000      -0.01730000       2.38320000
H        1.15960000       1.47490000       2.67390000
