17
Properties=species:S:1:pos:R:3 gdb_125879=T pbc="F F F"
C       -0.10250000       1.53270000      -0.17260000
C        0.01190000       0.03550000       0.00010000
C        1.32110000      -0.67720000      -0.16640000
C        0.69140000      -0.60430000       1.21120000
C        1.31870000       0.18850000       2.27590000
N        1.08460000      -0.01970000       3.57160000
N        1.85960000       0.90540000       4.12470000
N        2.53840000       1.64880000       3.26800000
N        2.20910000       1.20420000       2.08380000
H        0.79160000       2.04630000       0.18780000
H       -0.23490000       1.78290000      -1.23080000
H       -0.96550000       1.92890000       0.37380000
H       -0.86360000      -0.51870000      -0.32940000
H        1.34540000      -1.64370000      -0.65750000
H        2.20340000      -0.06490000      -0.31820000
H        0.22200000      -1.50390000       1.59220000
H        1.93640000       1.02930000       5.12300000
