17
Properties=species:S:1:pos:R:3 gdb_117150=T pbc="F F F"
O       -0.15720000       1.39270000       0.09210000
C        0.01970000      -0.01260000       0.03320000
C       -1.37360000      -0.62800000       0.06970000
C       -1.36620000      -2.13450000       0.01170000
O       -0.34980000      -2.79310000      -0.03430000
C       -2.71180000      -2.89180000       0.00680000
O       -2.51230000      -4.24280000      -0.21770000
C       -3.45960000      -2.62090000       1.32710000
O       -3.62320000      -3.44440000       2.18070000
H        0.71100000       1.80590000       0.08120000
H        0.53590000      -0.32390000      -0.88590000
H        0.61110000      -0.38870000       0.87970000
H       -1.89640000      -0.30520000       0.98060000
H       -1.97660000      -0.24020000      -0.76140000
H       -3.33640000      -2.44680000      -0.78810000
H       -1.55460000      -4.38380000      -0.13970000
H       -3.85370000      -1.58250000       1.42180000
