19
Properties=species:S:1:pos:R:3 gdb_114504=T pbc="F F F"
O       -0.05060000       1.37340000      -0.30720000
C        0.04310000      -0.03790000      -0.17220000
C       -1.36430000      -0.55870000       0.04750000
C       -2.36990000      -0.52210000      -1.14240000
C       -2.66350000      -2.03690000      -0.96150000
C       -1.80740000      -2.97310000      -1.85620000
C       -0.71300000      -2.94660000      -0.77020000
O        0.38180000      -3.42530000      -0.68580000
C       -1.57490000      -2.10140000       0.18080000
H        0.82890000       1.71710000      -0.48910000
H        0.48230000      -0.49510000      -1.07260000
H        0.68200000      -0.32330000       0.67910000
H       -1.78130000      -0.05090000       0.92160000
H       -3.22770000       0.13220000      -0.97810000
H       -1.92580000      -0.25960000      -2.10740000
H       -3.69850000      -2.33170000      -0.79680000
H       -2.22340000      -3.98240000      -1.95500000
H       -1.52420000      -2.61930000      -2.85210000
H       -1.72390000      -2.50520000       1.18360000
