18
Properties=species:S:1:pos:R:3 gdb_38124=T pbc="F F F"
C       -0.07770000       1.51460000       0.09230000
O        1.31870000       1.90590000      -0.00440000
C        2.16910000       0.73880000       0.21470000
C        1.22230000      -0.25760000       0.89300000
C        0.07680000       0.02050000      -0.07830000
N       -0.75700000      -1.02080000      -0.67210000
C        0.32760000      -0.38640000      -1.48060000
C        1.76010000      -0.69380000      -1.77390000
C        2.64360000       0.00990000      -1.05170000
H       -0.48660000       1.82760000       1.06280000
H       -0.63670000       2.00050000      -0.71120000
H        3.01640000       1.08530000       0.80990000
H        1.59530000      -1.28040000       0.89030000
H        0.95220000       0.03520000       1.91330000
H       -0.47620000      -1.91970000      -0.28470000
H       -0.12440000       0.24360000      -2.24640000
H        2.05160000      -1.31230000      -2.61800000
H        3.70950000      -0.02250000      -1.26040000
