19
Properties=species:S:1:pos:R:3 gdb_55760=T pbc="F F F"
C        0.07160000       0.61080000       1.02590000
C       -0.00650000       0.12980000      -0.40810000
O        0.85090000       0.36100000      -1.22750000
C       -1.23670000      -0.71450000      -0.76980000
C       -1.02060000      -2.14510000      -0.36510000
C       -0.06930000      -3.18480000      -0.98690000
C       -1.04810000      -4.30690000      -0.48950000
C       -1.93170000      -3.20440000       0.10850000
O       -1.11490000      -2.46980000       1.03400000
H        1.04320000       1.06750000       1.21760000
H       -0.71960000       1.34880000       1.20690000
H       -0.11060000      -0.22140000       1.71350000
H       -2.12860000      -0.33470000      -0.26090000
H       -1.37900000      -0.65440000      -1.85240000
H       -0.01870000      -3.12300000      -2.07610000
H        0.94220000      -3.18870000      -0.57560000
H       -1.52560000      -4.84270000      -1.31300000
H       -0.65350000      -5.02310000       0.23450000
H       -3.00170000      -3.19540000       0.28530000
