14
Properties=species:S:1:pos:R:3 gdb_29049=T pbc="F F F"
N        0.05990000       1.32230000       0.26650000
C       -0.03530000       0.00280000       0.06770000
C       -1.23450000      -0.68040000       0.03560000
C       -1.41650000      -2.05860000      -0.20070000
N       -0.58380000      -3.07060000      -0.14530000
C        0.72530000      -2.91350000       0.17180000
N        1.55650000      -1.92030000       0.08360000
C        1.30680000      -0.62040000      -0.25310000
O        2.16520000       0.12360000      -0.70090000
H        0.94770000       1.73840000       0.01600000
H       -0.74760000       1.90270000       0.41750000
H       -2.14500000      -0.08840000       0.09650000
H       -2.44580000      -2.34340000      -0.42990000
H        1.17580000      -3.84150000       0.53090000
