22
Properties=species:S:1:pos:R:3 gdb_58607=T pbc="F F F"
C       -0.89480000       1.31390000       0.78090000
C       -0.14390000       0.12870000       0.15690000
C        0.46420000       0.50490000      -1.20280000
C        0.90940000      -0.46840000       1.10100000
C        0.42290000      -1.35500000       2.21830000
C        1.14800000      -1.96160000       1.04100000
C        2.06550000       0.46160000       1.42540000
N        3.28350000       0.08350000       0.92960000
O        1.92600000       1.47790000       2.08080000
H       -0.21400000       2.14000000       0.99620000
H       -1.67600000       1.66870000       0.10010000
H       -1.36990000       1.02630000       1.72370000
H       -0.87300000      -0.67520000      -0.01720000
H        1.19110000       1.31830000      -1.10010000
H        0.97330000      -0.34810000      -1.66470000
H       -0.31320000       0.84530000      -1.89400000
H        0.94080000      -1.31390000       3.17000000
H       -0.64760000      -1.51250000       2.30080000
H        0.57300000      -2.53560000       0.32130000
H        2.14660000      -2.34590000       1.21970000
H        3.36010000      -0.64370000       0.24060000
H        4.04510000       0.73630000       1.02690000
