17
Properties=species:S:1:pos:R:3 gdb_85142=T pbc="F F F"
C       -0.25390000       1.51230000      -0.07190000
C        0.11650000       0.04710000      -0.07710000
O        1.40010000      -0.18990000      -0.76970000
C        1.95770000      -0.75070000       0.34860000
O        3.05530000      -1.18830000       0.48410000
C        0.70430000      -0.58760000       1.19880000
C        0.73350000       0.06840000       2.59300000
O        0.09550000      -1.07150000       3.19790000
C        0.07770000      -1.78150000       1.94610000
H        0.52740000       2.11580000       0.39950000
H       -0.39270000       1.87010000      -1.09580000
H       -1.19120000       1.66540000       0.47290000
H       -0.65690000      -0.56480000      -0.55180000
H        1.74000000       0.24000000       2.99220000
H        0.13710000       0.98270000       2.69670000
H       -0.93900000      -2.04770000       1.63080000
H        0.70210000      -2.68230000       1.97110000
