18
Properties=species:S:1:pos:R:3 gdb_52772=T pbc="F F F"
C        0.08090000       1.53100000      -0.06780000
C        0.02640000       0.07660000      -0.04820000
C       -0.03270000      -1.12750000      -0.03280000
C       -0.04110000      -2.58240000      -0.02980000
O        0.76100000      -3.09700000      -1.07560000
C        0.01460000      -3.36480000       1.34260000
C       -1.43690000      -2.90820000       1.61240000
C       -1.36990000      -3.38720000       0.14320000
N       -0.58080000      -4.58150000       0.65830000
H        0.72060000       1.91810000       0.73290000
H        0.47830000       1.89960000      -1.01980000
H       -0.91630000       1.96470000       0.06450000
H        1.56470000      -2.56880000      -1.11400000
H        0.85230000      -3.43690000       2.03890000
H       -1.99810000      -3.57050000       2.26990000
H       -1.61590000      -1.85000000       1.79750000
H       -2.17540000      -3.48980000      -0.58530000
H        0.06200000      -4.88380000      -0.07790000
