21
Properties=species:S:1:pos:R:3 gdb_116392=T pbc="F F F"
C        0.00270000       1.55880000       0.00500000
C        0.03800000       0.02950000       0.03100000
C        0.73850000      -0.56690000      -1.18220000
O        2.10280000      -0.15020000      -1.16530000
C        2.85300000      -0.60550000      -2.27700000
C        2.97360000      -2.12730000      -2.26190000
C        1.57270000      -2.76300000      -2.25160000
C        0.64630000      -2.10290000      -1.23890000
O       -0.13130000      -2.73080000      -0.56000000
H        1.01380000       1.97020000      -0.04910000
H       -0.55740000       1.92850000      -0.86170000
H       -0.47990000       1.95260000       0.90430000
H        0.55460000      -0.32520000       0.92980000
H       -0.97220000      -0.38720000       0.07210000
H        0.26030000      -0.19110000      -2.10980000
H        2.38570000      -0.26610000      -3.21820000
H        3.83410000      -0.12830000      -2.19800000
H        3.54930000      -2.47580000      -3.12670000
H        3.52250000      -2.42530000      -1.36140000
H        1.10580000      -2.61740000      -3.23740000
H        1.59330000      -3.83810000      -2.05800000
