17
Properties=species:S:1:pos:R:3 gdb_48369=T pbc="F F F"
O       -1.00490000       1.31780000      -0.14150000
C        0.08080000       0.97140000       0.24700000
C        1.35120000       1.71150000      -0.05400000
C        2.37760000       1.69860000       1.01220000
O        2.49080000       0.83260000      -0.10480000
C        1.25970000       2.81380000      -1.07370000
C        2.56440000       3.42780000      -1.62610000
O        2.18490000       3.12180000      -2.98100000
C        1.01410000       2.40220000      -2.54560000
H        0.23400000       0.05470000       0.85800000
H        3.08760000       2.52350000       1.04850000
H        2.17330000       1.21360000       1.96600000
H        0.53850000       3.55430000      -0.72300000
H        2.69950000       4.50370000      -1.46770000
H        3.47690000       2.89490000      -1.33120000
H        1.09960000       1.32530000      -2.73970000
H        0.09680000       2.78090000      -3.00720000
