20
Properties=species:S:1:pos:R:3 gdb_76261=T pbc="F F F"
C        0.11310000       1.63230000       0.20880000
C        0.06380000       0.10180000       0.04380000
C        0.84450000      -0.45990000      -1.17720000
C        1.21060000       0.49020000      -2.31590000
C        2.08630000      -1.14740000      -0.56010000
O        3.03820000      -1.53900000      -1.20720000
C        1.86680000      -1.24510000       0.87310000
C        0.72730000      -0.59570000       1.22120000
N        0.15130000      -0.52470000       2.44950000
H        1.14380000       1.98820000       0.29770000
H       -0.34890000       2.13130000      -0.64690000
H       -0.42770000       1.95470000       1.10530000
H       -0.99230000      -0.19490000      -0.00130000
H        0.24980000      -1.27930000      -1.60290000
H        1.77640000       1.35740000      -1.96290000
H        1.84730000      -0.04750000      -3.02300000
H        0.32570000       0.85310000      -2.84840000
H        2.53810000      -1.76710000       1.54290000
H        0.66860000      -0.82920000       3.25770000
H       -0.56230000       0.16290000       2.62090000
