18
Properties=species:S:1:pos:R:3 gdb_63527=T pbc="F F F"
C       -0.09160000       1.54320000      -0.03850000
C        0.01300000       0.03860000       0.03660000
O       -1.15740000      -0.65400000      -0.32010000
C        1.33370000      -0.66820000      -0.26450000
C        0.76620000      -0.64970000       1.12820000
C        1.34300000      -0.11090000       2.44590000
C        0.66630000      -1.35610000       3.08580000
O        0.51020000      -1.78190000       4.19650000
N        0.27110000      -1.81010000       1.84240000
H        0.82370000       2.02340000       0.31880000
H       -0.25460000       1.87010000      -1.07300000
H       -0.93100000       1.90070000       0.56620000
H       -1.28940000      -0.55130000      -1.26930000
H        1.27350000      -1.60350000      -0.81180000
H        2.21250000      -0.06620000      -0.47480000
H        2.43210000      -0.09380000       2.51780000
H        0.93010000       0.83750000       2.79470000
H       -0.46940000      -2.44470000       1.58060000
