18
Properties=species:S:1:pos:R:3 gdb_61797=T pbc="F F F"
C       -0.12320000       1.82030000       0.00700000
C        0.05800000       0.29870000       0.03390000
N        0.79900000      -0.12370000       1.21180000
C        2.03670000      -0.68300000       1.15270000
O        2.67470000      -0.86480000       0.13650000
C       -1.29590000      -0.45410000       0.02260000
O       -2.02100000      -0.17570000       1.19270000
C       -2.11940000      -0.11720000      -1.20210000
O       -3.23780000       0.32870000      -1.10810000
H        0.84860000       2.31460000       0.07230000
H       -0.61010000       2.14530000      -0.91870000
H       -0.74140000       2.14710000       0.84780000
H        0.65470000      -0.02710000      -0.82330000
H        0.32720000      -0.05520000       2.10090000
H        2.41100000      -0.95690000       2.15850000
H       -1.06820000      -1.53290000      -0.03690000
H       -2.87890000       0.16820000       0.89590000
H       -1.64500000      -0.30950000      -2.18530000
