18
Properties=species:S:1:pos:R:3 gdb_88122=T pbc="F F F"
C       -0.04990000       1.51190000       0.07300000
C        0.02730000       0.00360000       0.02350000
C        1.34680000      -0.69030000      -0.24100000
C        0.74580000      -0.75690000       1.12320000
O        1.37260000      -0.07890000       2.19100000
C        0.72140000      -0.53130000       3.34960000
O        0.25420000      -1.85410000       3.07610000
C        0.17390000      -1.99440000       1.71700000
N       -0.29760000      -2.98150000       1.09060000
H        0.82370000       1.93230000       0.57820000
H       -0.09690000       1.93220000      -0.93710000
H       -0.94130000       1.84530000       0.61510000
H       -0.85070000      -0.50750000      -0.36170000
H        1.35170000      -1.60950000      -0.81580000
H        2.22730000      -0.06380000      -0.34080000
H        1.43430000      -0.56550000       4.17710000
H       -0.14340000       0.10060000       3.60640000
H       -0.65510000      -3.69080000       1.73030000
