19
Properties=species:S:1:pos:R:3 gdb_76067=T pbc="F F F"
C       -0.03730000       1.61240000      -0.07890000
C        0.13250000       0.11560000       0.03720000
C        1.43720000      -0.57150000      -0.28460000
C        2.60810000       0.15530000      -0.67410000
C        3.59690000       0.72430000      -1.05370000
C        0.90680000      -0.54880000       1.16850000
C        1.61700000       0.22390000       2.23390000
C        1.69850000      -0.46910000       3.58400000
O        2.10340000       1.31970000       2.05310000
H        0.86280000       2.14100000       0.23140000
H       -0.26600000       1.87930000      -1.11600000
H       -0.86900000       1.95280000       0.54670000
H       -0.74270000      -0.45600000      -0.26180000
H        1.35400000      -1.54910000      -0.75210000
H        4.46870000       1.24240000      -1.36750000
H        0.51440000      -1.50390000       1.50260000
H        2.21240000      -1.43240000       3.48620000
H        2.23440000       0.16400000       4.29180000
H        0.69320000      -0.68230000       3.96560000
