22
Properties=species:S:1:pos:R:3 gdb_122425=T pbc="F F F"
C        0.10670000       1.44670000       0.09400000
N       -0.08780000       0.01650000       0.16250000
C       -1.37480000      -0.49990000       0.66740000
C       -0.60350000      -1.64880000       1.34180000
C        0.65550000      -0.75190000       1.17900000
O       -1.04620000      -1.95720000       2.63380000
C       -0.31670000      -2.99700000       3.26870000
C       -1.06370000      -3.33120000       4.55040000
O       -2.38690000      -3.74690000       4.28040000
H        1.13290000       1.66690000      -0.21900000
H       -0.57040000       1.87800000      -0.65110000
H       -0.07490000       1.95780000       1.05910000
H       -1.83830000       0.14130000       1.43530000
H       -2.11610000      -0.74220000      -0.10070000
H       -0.55110000      -2.55350000       0.72150000
H        1.59160000      -1.19980000       0.82890000
H        0.84200000      -0.18880000       2.10940000
H       -0.27530000      -3.88220000       2.61480000
H        0.71460000      -2.67920000       3.48810000
H       -0.56090000      -4.15540000       5.06690000
H       -1.04370000      -2.45300000       5.21570000
H       -2.74920000      -3.08380000       3.68080000
