11
Properties=species:S:1:pos:R:3 gdb_130685=T pbc="F F F"
O        0.06520000      -0.00800000       0.00270000
C       -0.04050000       1.17700000       0.00970000
N       -1.16360000       1.98260000       0.02940000
C       -0.76980000       3.32580000       0.03160000
C        0.57960000       3.29000000       0.01240000
O        1.14480000       4.47750000       0.01040000
N        0.06510000       5.41620000       0.03050000
C       -1.05340000       4.70480000       0.04230000
O        1.09990000       2.05620000      -0.00160000
H       -2.08710000       1.58710000       0.04260000
H       -1.99320000       5.23630000       0.05810000
