20
Properties=species:S:1:pos:R:3 gdb_115297=T pbc="F F F"
C       -0.04160000       1.46900000       0.08120000
C        0.02740000      -0.02290000      -0.06550000
N       -0.00220000      -0.58670000      -1.20170000
C        0.00450000      -2.04280000      -1.27400000
C       -0.37040000      -2.73250000       0.04350000
C       -0.06960000      -4.22490000       0.02200000
O       -0.51350000      -4.78450000       1.25000000
C        0.37640000      -2.02440000       1.16900000
O        0.11580000      -0.61650000       1.15850000
H        0.86230000       1.84580000       0.57080000
H       -0.14850000       1.92840000      -0.90050000
H       -0.89020000       1.74640000       0.71470000
H       -0.68760000      -2.34170000      -2.07050000
H        1.00140000      -2.37240000      -1.60360000
H       -1.44600000      -2.60560000       0.21940000
H       -0.57920000      -4.68880000      -0.83740000
H        1.01370000      -4.38070000      -0.11720000
H       -0.30940000      -5.72410000       1.24810000
H        0.06870000      -2.38450000       2.15110000
H        1.45970000      -2.18310000       1.06410000
