13
Properties=species:S:1:pos:R:3 gdb_5278=T pbc="F F F"
C       -0.01640000       1.48390000       0.00410000
C       -0.02480000      -0.02840000       0.02380000
O       -0.04610000      -0.69060000       1.03660000
C       -0.00160000      -0.68140000      -1.31000000
N        0.02220000      -0.11060000      -2.48140000
C        0.03630000      -1.15680000      -3.38010000
C        0.01990000      -2.32760000      -2.68820000
O       -0.00430000      -2.03810000      -1.36590000
H        0.87890000       1.85150000      -0.50690000
H       -0.87400000       1.86230000      -0.56050000
H       -0.04440000       1.85190000       1.02990000
H        0.05690000      -0.99880000      -4.44640000
H        0.02210000      -3.37010000      -2.95740000
