18
Properties=species:S:1:pos:R:3 gdb_98778=T pbc="F F F"
O       -0.46750000       1.44950000       0.50860000
C       -0.93120000       0.15520000       0.75820000
C       -1.21700000      -0.58430000      -0.53700000
O       -0.99360000      -0.02650000      -1.59490000
C       -1.81200000      -1.97530000      -0.50800000
C       -1.69820000      -2.93570000       0.73600000
C       -3.22880000      -2.99010000       0.79000000
N       -3.67750000      -1.59700000       1.01510000
C       -3.35020000      -2.05060000      -0.35590000
H       -0.42370000       1.51310000      -0.45950000
H       -0.19030000      -0.43150000       1.32900000
H       -1.85450000       0.15020000       1.35780000
H       -1.50440000      -2.48000000      -1.42590000
H       -1.23250000      -3.88410000       0.46290000
H       -1.22030000      -2.54090000       1.63470000
H       -3.85490000      -3.82660000       1.07280000
H       -4.69320000      -1.60690000       1.09920000
H       -4.07780000      -1.98640000      -1.15470000
