18
Properties=species:S:1:pos:R:3 gdb_55312=T pbc="F F F"
O        0.00720000       0.80260000       1.57680000
C        0.03290000       1.11960000       0.26530000
O        0.85720000       0.65710000      -0.47630000
C       -1.05110000       2.09470000      -0.18330000
C       -2.46370000       1.71910000       0.35620000
N       -2.18310000       2.57660000       1.54330000
H       -2.96250000       3.11670000       1.90710000
H       -0.71430000       1.30080000       2.01250000
C       -1.17750000       3.30900000       0.75450000
C       -0.14860000       4.24830000       1.27960000
C       -1.24600000       4.74980000       0.34890000
H       -0.94550000       2.28070000      -1.24960000
H       -3.25540000       2.10680000      -0.29470000
H       -2.65720000       0.66980000       0.59200000
H       -0.20960000       4.52780000       2.32660000
H        0.86270000       4.17420000       0.89350000
H       -0.97820000       5.02010000      -0.66750000
H       -2.02960000       5.36420000       0.78270000
