15
Properties=species:S:1:pos:R:3 gdb_29239=T pbc="F F F"
C        0.00570000       1.52120000      -0.06860000
C       -0.00330000       0.02370000       0.00180000
C       -1.10890000      -0.71010000       0.20440000
N       -1.06870000      -2.09110000       0.26170000
C        0.08550000      -2.82910000       0.12060000
O        0.13080000      -4.02620000       0.16990000
O        1.21160000      -2.08690000      -0.08570000
C        1.25920000      -0.68680000      -0.15850000
N        2.36730000      -0.10850000      -0.35510000
H        0.66140000       1.94250000       0.69970000
H        0.39850000       1.86270000      -1.03130000
H       -1.00100000       1.92600000       0.06570000
H       -2.09040000      -0.27040000       0.33410000
H       -1.90460000      -2.63110000       0.41500000
H        3.12330000      -0.78860000      -0.43920000
