23
Properties=species:S:1:pos:R:3 gdb_120166=T pbc="F F F"
C        0.90270000       1.30790000      -0.09960000
O        0.99280000      -0.07760000      -0.32060000
C       -0.09860000      -0.59020000      -1.06510000
C        0.07450000      -2.09280000      -1.15890000
C       -0.68180000      -2.94570000      -2.22260000
C        0.29870000      -2.40710000      -3.30290000
C        1.18930000      -2.73370000      -2.06020000
C        2.67770000      -2.55760000      -1.92090000
C        0.36880000      -4.05870000      -1.94800000
H        0.88900000       1.87550000      -1.04430000
H       -0.00310000       1.57390000       0.46900000
H        1.78130000       1.60710000       0.47760000
H       -1.04900000      -0.35640000      -0.55290000
H       -0.14300000      -0.10320000      -2.05100000
H        0.04500000      -2.51150000      -0.14610000
H       -1.76140000      -3.07260000      -2.31570000
H        0.44780000      -3.04710000      -4.17780000
H        0.20830000      -1.36250000      -3.60590000
H        2.95150000      -1.50030000      -1.98600000
H        3.02470000      -2.92830000      -0.95020000
H        3.21550000      -3.10430000      -2.70360000
H        0.33810000      -4.53430000      -0.96300000
H        0.51880000      -4.79320000      -2.74450000
