15
Properties=species:S:1:pos:R:3 gdb_33712=T pbc="F F F"
N        0.08440000      -1.11620000      -0.01550000
C        0.02300000       0.03760000      -0.04790000
C       -0.10320000       1.46810000      -0.08380000
C       -1.29890000       2.14800000       0.48470000
C       -1.36140000       3.39660000       0.00760000
C       -0.12750000       3.67400000      -0.81140000
C        1.07330000       3.62180000       0.20640000
N        1.28960000       2.16780000      -0.03810000
C        0.40570000       2.27300000      -1.22850000
H       -1.95090000       1.67800000       1.20750000
H       -2.06420000       4.16290000       0.30950000
H       -0.16380000       4.49090000      -1.52830000
H        1.95710000       4.13460000      -0.17890000
H        0.87910000       3.91540000       1.24140000
H        0.66600000       1.88550000      -2.20800000
