21
Properties=species:S:1:pos:R:3 gdb_99633=T pbc="F F F"
C       -0.00680000       1.54450000       0.16680000
C       -0.05870000       0.01660000       0.11970000
C       -1.48720000      -0.55180000      -0.04150000
C       -2.11400000      -0.12040000      -1.29590000
C       -2.63960000       0.19880000      -2.33080000
C       -1.50240000      -2.07530000       0.04750000
C       -1.77990000      -2.75710000       1.37220000
C       -2.81330000      -2.78130000       0.28410000
O       -3.96350000      -2.01480000       0.49590000
H        1.02260000       1.89720000       0.28100000
H       -0.41490000       1.98060000      -0.74980000
H       -0.58840000       1.93420000       1.00970000
H        0.56230000      -0.35420000      -0.70450000
H        0.35900000      -0.40380000       1.04180000
H       -2.10240000      -0.16320000       0.77980000
H       -3.09500000       0.49590000      -3.24310000
H       -0.80400000      -2.56450000      -0.62640000
H       -1.25180000      -3.67310000       1.61190000
H       -1.99770000      -2.12070000       2.22370000
H       -2.98160000      -3.72430000      -0.23550000
H       -4.15000000      -1.54220000      -0.32460000
