20
Properties=species:S:1:pos:R:3 gdb_96511=T pbc="F F F"
C       -0.55290000       1.19280000       0.12160000
C        0.40390000       0.00550000       0.18300000
N        1.04730000      -0.20200000      -1.12160000
C        1.40330000      -1.58250000      -1.42340000
C        2.56960000      -2.07060000      -0.56300000
C        2.28880000      -2.02730000       0.93650000
O        2.37860000      -0.71590000       1.51070000
C        1.48720000       0.26800000       1.24480000
O        1.58590000       1.30710000       1.83920000
H       -0.02060000       2.09030000      -0.20230000
H       -1.36680000       0.98230000      -0.58030000
H       -0.98210000       1.39710000       1.10350000
H       -0.16790000      -0.89140000       0.48940000
H        0.43500000       0.15790000      -1.84350000
H        0.54930000      -2.27500000      -1.28300000
H        1.68660000      -1.63470000      -2.47970000
H        2.79620000      -3.10930000      -0.83250000
H        3.46370000      -1.47220000      -0.76790000
H        1.31470000      -2.47660000       1.17020000
H        3.04960000      -2.59480000       1.47730000
