16
Properties=species:S:1:pos:R:3 gdb_8871=T pbc="F F F"
C       -0.08370000       1.56800000      -0.31470000
C       -0.11930000       0.04480000      -0.17610000
C        0.82760000      -0.63700000      -1.19350000
O        2.14990000      -0.18330000      -1.05300000
C        0.78430000      -2.14300000      -1.02750000
O        1.73790000      -2.76790000      -0.61390000
C       -0.48290000      -2.91760000      -1.39960000
O       -1.46130000      -2.40840000      -1.87840000
H        0.93590000       1.94000000      -0.19140000
H       -0.44330000       1.88120000      -1.30090000
H       -0.71970000       2.03940000       0.44010000
H        0.19450000      -0.24790000       0.83360000
H       -1.13550000      -0.33040000      -0.33190000
H        0.46580000      -0.39940000      -2.20570000
H        2.65470000      -0.92630000      -0.69010000
H       -0.39120000      -4.00550000      -1.20010000
