19
Properties=species:S:1:pos:R:3 gdb_100493=T pbc="F F F"
C        0.03490000       1.55960000       0.10690000
C       -0.04590000       0.02500000      -0.00910000
C       -1.50170000      -0.46990000       0.03880000
O       -2.04030000      -0.08900000       1.29390000
C        0.61120000      -0.46270000      -1.22020000
C        1.13740000      -0.83870000      -2.23670000
C        1.76740000      -1.35880000      -3.44190000
C        1.79850000      -2.88870000      -3.46340000
O        1.61110000      -3.54620000      -4.45030000
H        1.07540000       1.89110000       0.14960000
H       -0.43770000       2.03480000      -0.75860000
H       -0.48220000       1.88630000       1.01110000
H        0.45900000      -0.41170000       0.86360000
H       -2.06230000      -0.02370000      -0.79720000
H       -1.51770000      -1.56170000      -0.09230000
H       -2.96760000      -0.34130000       1.31480000
H        1.27430000      -1.01480000      -4.35700000
H        2.81450000      -1.02220000      -3.49800000
H        2.02390000      -3.35270000      -2.47850000
