20
Properties=species:S:1:pos:R:3 gdb_122755=T pbc="F F F"
C       -0.01620000       1.61100000      -0.00000000
C        0.00360000       0.08030000      -0.00180000
C        0.70380000      -0.50960000      -1.23090000
C        0.72370000      -2.04160000      -1.23300000
C        1.42490000      -2.61630000      -2.46350000
C        1.45870000      -4.12530000      -2.49190000
O        0.99330000      -4.85360000      -1.65280000
C        2.13570000      -4.70340000      -3.67860000
N        2.66610000      -5.13990000      -4.60880000
H        1.00010000       2.02040000      -0.01200000
H       -0.53930000       2.00150000      -0.88000000
H       -0.52180000       2.00190000       0.88820000
H        0.50260000      -0.28270000       0.90620000
H       -1.02470000      -0.30140000       0.04510000
H        0.20550000      -0.14780000      -2.14130000
H        1.73380000      -0.12910000      -1.27960000
H        1.22280000      -2.41240000      -0.33040000
H       -0.29980000      -2.43100000      -1.18930000
H        0.94790000      -2.28200000      -3.39670000
H        2.46400000      -2.26410000      -2.54130000
