11
Properties=species:S:1:pos:R:3 gdb_131017=T pbc="F F F"
O       -0.07270000      -0.03300000      -0.16420000
C       -0.03690000       1.15640000      -0.11760000
N        1.15300000       1.92010000      -0.00120000
C        1.14130000       3.28470000       0.11850000
N        2.20590000       3.99830000       0.13760000
C        3.39720000       3.29820000      -0.06780000
O        4.40690000       3.78130000      -0.48970000
N        3.39980000       1.87800000       0.28780000
N        2.34960000       1.21650000       0.25560000
H       -0.91700000       1.82290000      -0.17480000
H        0.15830000       3.74470000       0.23180000
