17
Properties=species:S:1:pos:R:3 gdb_67055=T pbc="F F F"
C       -0.08930000       1.51460000      -0.19190000
C       -0.11630000      -0.00230000      -0.04350000
C       -1.17490000      -0.66890000       0.93110000
C       -0.33080000      -1.95430000       0.91210000
C        0.65740000      -0.76660000       1.00650000
C       -0.22170000      -0.15980000       2.13600000
O        1.86700000      -0.85960000       0.19540000
C        1.04680000      -0.59200000      -0.93580000
O        1.37020000      -0.68020000      -2.07020000
H        0.93030000       1.91420000      -0.14790000
H       -0.50060000       1.78370000      -1.17000000
H       -0.69320000       2.01710000       0.56750000
H       -2.26260000      -0.58680000       0.92010000
H       -0.40250000      -2.60860000       1.78190000
H       -0.31910000      -2.51230000      -0.02670000
H       -0.16180000       0.91240000       2.30970000
H       -0.30790000      -0.72080000       3.06910000
