13
Properties=species:S:1:pos:R:3 gdb_26815=T pbc="F F F"
O        0.03300000       1.36520000       0.25930000
C        0.05760000       0.03080000       0.04100000
C        0.11530000      -0.75490000      -1.08790000
O        0.16530000      -0.28760000      -2.36250000
N        0.11620000      -2.06820000      -0.76490000
C        0.05960000      -2.11990000       0.56390000
N        0.02220000      -0.84650000       1.08860000
C        0.03750000      -3.26780000       1.37660000
C        0.01700000      -4.23190000       2.09980000
H        0.06680000       1.80270000      -0.59880000
H        0.19870000      -1.06050000      -2.93830000
H       -0.02300000      -0.59900000       2.06330000
H       -0.00040000      -5.09020000       2.72440000
