13
Properties=species:S:1:pos:R:3 gdb_19101=T pbc="F F F"
O        0.00670000       0.00440000      -0.06290000
C       -0.01190000       1.19780000      -0.06120000
C       -1.08800000       2.29020000       0.08890000
C       -0.75900000       3.30090000      -1.02010000
C        0.00340000       4.21830000      -0.14640000
C       -0.02270000       3.11240000       0.94540000
C        1.03000000       2.32080000       0.09010000
N        0.76770000       3.29810000      -1.03800000
H       -2.11720000       2.10240000       0.38000000
H       -1.26160000       3.46750000      -1.96340000
H        0.13620000       5.29260000      -0.14370000
H       -0.04910000       3.18010000       2.02810000
H        2.08060000       2.16220000       0.31700000
