17
Properties=species:S:1:pos:R:3 gdb_87320=T pbc="F F F"
C        0.22650000       1.40440000      -0.17090000
C        0.44180000      -0.08280000      -0.06140000
O        1.74380000      -0.55350000       0.26490000
C        0.70090000      -0.80250000       1.21540000
C        0.77360000      -0.12310000       2.57420000
C        1.94160000      -0.54320000       3.34160000
C        2.90710000      -0.89010000       3.96550000
C        0.25880000      -2.23960000       1.23050000
O       -0.32700000      -2.75950000       2.14390000
H        0.78510000       1.95420000       0.58830000
H        0.56460000       1.75120000      -1.15270000
H       -0.83740000       1.64570000      -0.07830000
H       -0.04330000      -0.66340000      -0.85050000
H        0.77690000       0.96390000       2.46010000
H       -0.13870000      -0.39360000       3.11870000
H        3.75820000      -1.19930000       4.52000000
H        0.51640000      -2.78340000       0.29470000
