15
Properties=species:S:1:pos:R:3 gdb_7902=T pbc="F F F"
C       -0.32120000       1.42750000       0.30590000
N        0.10820000       0.07300000      -0.04530000
C       -1.03270000      -0.81350000      -0.34410000
C       -1.44740000      -1.43500000       0.98540000
O       -2.48360000      -1.95390000       1.29700000
C       -0.20010000      -1.28060000       1.91160000
O       -0.12650000      -1.66300000       3.04670000
C        0.84700000      -0.57980000       1.05230000
H        0.56040000       2.04290000       0.50610000
H       -0.85200000       1.86720000      -0.54310000
H       -0.98410000       1.48540000       1.18870000
H       -1.85450000      -0.27710000      -0.82160000
H       -0.71730000      -1.61590000      -1.02790000
H        1.53610000      -1.33520000       0.64580000
H        1.44070000       0.13290000       1.62750000
