22
Properties=species:S:1:pos:R:3 gdb_123184=T pbc="F F F"
O        0.39310000       0.88110000      -0.04610000
C       -0.29960000      -0.27640000       0.37560000
C       -1.80630000      -0.02950000       0.38280000
O       -2.24980000       0.43750000      -0.88500000
C       -2.51030000      -0.58150000      -1.83520000
C       -3.01760000       0.08950000      -3.10610000
N       -3.28760000      -0.91580000      -4.12440000
C       -4.64720000      -1.45060000      -4.16110000
C       -4.17030000      -0.50950000      -5.21090000
H       -0.11420000       1.22720000      -0.79110000
H       -0.05920000      -1.14280000      -0.26290000
H        0.03990000      -0.51660000       1.38960000
H       -2.35600000      -0.93420000       0.68360000
H       -2.03760000       0.77220000       1.09210000
H       -1.61160000      -1.17040000      -2.06610000
H       -3.26910000      -1.27790000      -1.44360000
H       -3.90330000       0.70200000      -2.86130000
H       -2.24610000       0.76940000      -3.48490000
H       -4.73390000      -2.51320000      -4.36790000
H       -5.36610000      -1.06480000      -3.43940000
H       -4.57290000       0.50210000      -5.18920000
H       -3.90130000      -0.87180000      -6.19890000
