20
Properties=species:S:1:pos:R:3 gdb_83824=T pbc="F F F"
C       -0.24010000       1.57410000       0.06590000
C        0.00820000       0.08130000       0.00710000
C        1.32030000      -0.55500000      -0.41470000
C        2.57850000       0.24210000      -0.62260000
O        3.73500000      -0.42790000      -0.08150000
C        3.82220000      -0.65230000       1.25720000
N        3.02800000      -0.50290000       2.22660000
C        1.65020000      -0.02420000       2.10900000
C        0.83540000      -0.69290000       1.01210000
H        0.61540000       2.14190000       0.43890000
H       -0.48390000       1.96540000      -0.92790000
H       -1.08670000       1.79510000       0.72500000
H       -0.86090000      -0.46520000      -0.35140000
H        1.25200000      -1.43730000      -1.04440000
H        2.80970000       0.35990000      -1.68450000
H        2.51550000       1.24330000      -0.18770000
H        4.82000000      -1.04690000       1.45450000
H        1.16540000      -0.21530000       3.07240000
H        1.65190000       1.06670000       2.00130000
H        0.45460000      -1.67170000       1.28860000
