21
Properties=species:S:1:pos:R:3 gdb_58047=T pbc="F F F"
C        0.05560000       1.50280000      -0.11810000
C       -0.01520000      -0.02720000      -0.02570000
C        0.82900000      -0.53510000       1.15070000
C       -1.49510000      -0.51410000       0.08350000
C       -2.27860000      -0.00680000      -1.04850000
N       -2.88340000       0.36430000      -1.96160000
C       -1.63110000      -2.03500000       0.18510000
C       -2.80740000      -2.77400000      -0.33130000
N       -1.49210000      -2.90240000      -0.99070000
H        1.09330000       1.82890000      -0.23510000
H       -0.51640000       1.88770000      -0.96650000
H       -0.33720000       1.96840000       0.79380000
H        0.39330000      -0.45090000      -0.95190000
H        0.40710000      -0.21030000       2.10970000
H        0.91440000      -1.62410000       1.16580000
H        1.84230000      -0.12780000       1.08360000
H       -1.92380000      -0.07630000       0.99700000
H       -1.14340000      -2.43240000       1.07060000
H       -3.14850000      -3.66500000       0.18750000
H       -3.58440000      -2.21290000      -0.84150000
H       -1.49280000      -2.33970000      -1.84020000
