19
Properties=species:S:1:pos:R:3 gdb_96688=T pbc="F F F"
C       -0.70780000       1.17480000       0.14270000
N       -0.07120000      -0.11980000      -0.00130000
C        0.86120000      -0.52940000       0.75540000
N        1.51280000      -1.75160000       0.48450000
C        1.14840000      -2.94950000       1.25280000
C        0.78250000      -2.80680000      -0.18740000
C        1.46270000       0.21320000       1.94620000
C        2.93200000      -0.01200000       2.23440000
O        0.77840000       0.95850000       2.61140000
H       -0.96540000       1.54220000      -0.85600000
H       -1.64810000       1.05300000       0.69400000
H       -0.11700000       1.92880000       0.67110000
H        1.97590000      -3.58540000       1.55420000
H        0.34630000      -2.85490000       1.98110000
H       -0.25380000      -2.59760000      -0.43380000
H        1.34370000      -3.35190000      -0.94040000
H        3.10760000      -1.04960000       2.53510000
H        3.52900000       0.15110000       1.33160000
H        3.24810000       0.66270000       3.03120000
