15
Properties=species:S:1:pos:R:3 gdb_47689=T pbc="F F F"
N       -0.07170000       1.14600000      -0.71580000
C       -0.04690000       0.06500000      -0.04600000
C       -1.38570000      -0.52110000       0.35190000
O       -1.41420000      -1.18930000       1.59710000
C       -0.67690000      -2.35760000       1.62710000
O        0.68310000      -2.15960000       2.00700000
C        1.57480000      -1.51900000       1.23060000
O        2.75500000      -1.66730000       1.40490000
N        1.12650000      -0.66200000       0.21420000
H        0.85870000       1.44340000      -1.01700000
H       -2.10060000       0.29840000       0.40450000
H       -1.70330000      -1.20730000      -0.44960000
H       -1.07790000      -2.98860000       2.42070000
H       -0.71060000      -2.88120000       0.66000000
H        1.94540000      -0.26370000      -0.22830000
