23
Properties=species:S:1:pos:R:3 gdb_72537=T pbc="F F F"
C       -0.07930000       1.53390000       0.01210000
C        0.03870000       0.01630000       0.00220000
C        0.74250000      -0.50320000      -1.26780000
C        0.71590000      -2.05750000      -1.27360000
C       -0.01950000      -2.54060000      -0.01160000
C        0.74560000      -2.07200000       1.23810000
C        0.76640000      -0.51760000       1.25270000
C       -1.41030000      -1.90210000       0.00840000
O       -1.31320000      -0.47540000       0.01200000
H        0.91070000       2.00020000       0.00420000
H       -0.63350000       1.87860000      -0.86570000
H       -0.61450000       1.86870000       0.90540000
H        0.22180000      -0.09970000      -2.14160000
H        1.76860000      -0.12170000      -1.30140000
H        0.20600000      -2.43160000      -2.16750000
H        1.73000000      -2.47050000      -1.29370000
H       -0.12160000      -3.63080000      -0.01680000
H        0.25990000      -2.46010000       2.13950000
H        1.76140000      -2.48110000       1.22680000
H        1.79150000      -0.13250000       1.27400000
H        0.25910000      -0.12790000       2.14050000
H       -1.99280000      -2.21110000      -0.87220000
H       -1.97020000      -2.21790000       0.90130000
