19
Properties=species:S:1:pos:R:3 gdb_49908=T pbc="F F F"
O        0.14490000      -0.11870000      -0.12230000
C        0.05460000       1.07690000      -0.00940000
C        1.20670000       2.01610000       0.21310000
C        1.18190000       3.23890000      -0.76260000
C        0.55100000       4.11040000       0.36290000
C        0.94930000       3.01610000       1.38870000
C        1.09740000       5.50090000       0.54360000
C        1.36700000       6.08930000       1.86100000
O        2.43510000       5.60730000       1.04040000
H       -0.94230000       1.57970000      -0.06650000
H        2.13030000       1.43750000       0.25350000
H        2.19670000       3.56190000      -1.00480000
H        0.61490000       3.12510000      -1.69020000
H       -0.53620000       4.17480000       0.24390000
H        0.20550000       2.72700000       2.13540000
H        1.88660000       3.26700000       1.88940000
H        0.88220000       6.18780000      -0.27790000
H        1.32870000       7.16960000       1.99150000
H        1.17330000       5.50610000       2.76010000
