18
Properties=species:S:1:pos:R:3 gdb_18106=T pbc="F F F"
C       -0.02950000       1.35400000       0.10680000
C        1.37550000       1.95190000       0.01370000
C        2.25840000       0.75030000       0.41580000
C        2.43170000       0.56780000       1.90500000
C        1.93130000      -0.58470000       2.34700000
C        1.35140000      -1.42110000       1.23480000
C        1.39820000      -0.48600000      -0.00210000
O        0.10520000       0.01350000      -0.35120000
H       -0.39880000       1.38040000       1.14360000
H       -0.76450000       1.85300000      -0.53140000
H        1.58950000       2.25440000      -1.01620000
H        1.51560000       2.82100000       0.66220000
H        3.22540000       0.78430000      -0.09770000
H        2.91360000       1.31940000       2.52190000
H        1.94880000      -0.91640000       3.37990000
H        1.94220000      -2.33300000       1.07400000
H        0.32130000      -1.74410000       1.42180000
H        1.78350000      -1.00530000      -0.88470000
