18
Properties=species:S:1:pos:R:3 gdb_113308=T pbc="F F F"
C       -0.52840000       1.38690000       0.32980000
C        0.27230000       0.16970000      -0.14840000
C        0.97840000      -0.53750000       0.99630000
O        0.16430000      -1.28670000       1.90950000
C        1.13160000      -2.00680000       1.13150000
C        0.59460000      -3.02960000       0.15870000
O        0.25160000      -4.22470000       0.83590000
C        1.99760000       0.27470000       1.65370000
N        2.81160000       0.93370000       2.14240000
H        0.12150000       2.12870000       0.80340000
H       -1.03130000       1.86750000      -0.51340000
H       -1.28860000       1.08670000       1.05660000
H       -0.39120000      -0.54180000      -0.64440000
H        1.02820000       0.47400000      -0.88180000
H        1.98090000      -2.36180000       1.71650000
H       -0.25710000      -2.62440000      -0.40210000
H        1.37810000      -3.29740000      -0.55820000
H       -0.45190000      -4.01260000       1.45960000
