19
Properties=species:S:1:pos:R:3 gdb_103548=T pbc="F F F"
O       -0.02970000       1.37560000      -0.17580000
C       -0.02980000      -0.04860000      -0.30690000
C       -1.45470000      -0.49970000       0.03730000
O       -1.77380000      -0.01480000       1.33800000
C       -2.46270000      -0.06080000      -1.00920000
C       -2.92350000      -1.08080000      -1.72910000
C       -2.30140000      -2.39180000      -1.31600000
C       -1.62220000      -2.04180000       0.03210000
O       -0.37500000      -2.68340000       0.24650000
H        0.88150000       1.67520000      -0.12280000
H        0.24000000      -0.35460000      -1.32630000
H        0.66780000      -0.51420000       0.39750000
H       -1.40110000       0.87600000       1.37750000
H       -2.73160000       0.98200000      -1.12740000
H       -3.64350000      -1.00430000      -2.53700000
H       -3.02920000      -3.20710000      -1.22510000
H       -1.53950000      -2.72300000      -2.03490000
H       -2.31400000      -2.25950000       0.85650000
H       -0.53970000      -3.62040000       0.38510000
