23
Properties=species:S:1:pos:R:3 gdb_115004=T pbc="F F F"
C       -0.08560000       1.72900000      -0.38560000
C       -0.27680000       0.20820000      -0.39130000
C        0.86140000      -0.53910000      -1.08750000
C        2.25530000      -0.42310000      -0.42080000
C        2.94000000      -1.70020000      -0.84470000
C        2.07660000      -2.58260000      -1.33970000
C        0.64850000      -2.06680000      -1.31220000
C       -0.16190000      -2.77920000      -0.21920000
O       -0.02440000      -2.20270000      -2.56960000
H        0.81860000       2.01980000       0.15950000
H        0.00380000       2.11860000      -1.40580000
H       -0.93340000       2.23200000       0.08990000
H       -0.38260000      -0.14660000       0.64200000
H       -1.21690000      -0.03390000      -0.90220000
H        0.95600000      -0.13910000      -2.10470000
H        2.79940000       0.47570000      -0.73130000
H        2.17330000      -0.36730000       0.67560000
H        4.00610000      -1.86240000      -0.72490000
H        2.31380000      -3.58370000      -1.68670000
H        0.27540000      -2.62230000       0.77130000
H       -1.19690000      -2.42570000      -0.20740000
H       -0.17250000      -3.86110000      -0.40170000
H       -0.29100000      -3.12300000      -2.66790000
