12
Properties=species:S:1:pos:R:3 gdb_133337=T pbc="F F F"
N        0.03510000       1.36020000       0.01120000
C       -0.06100000      -0.00640000       0.02290000
C       -1.33550000      -0.67080000       0.07100000
F       -2.34870000       0.23640000       0.02960000
O       -1.58280000      -1.84490000       0.12860000
N        1.17100000      -3.20740000       0.07090000
N        1.01430000      -2.09850000       0.05870000
C        1.16360000      -0.69770000       0.00520000
N        2.34830000      -0.15500000      -0.05420000
H        0.94290000       1.71990000      -0.25090000
H       -0.77850000       1.88090000      -0.27090000
H        3.11790000      -0.81290000      -0.09030000
