15
Properties=species:S:1:pos:R:3 gdb_5211=T pbc="F F F"
C       -0.02290000       1.48150000       0.01050000
C        0.00250000       0.02700000       0.00280000
C        0.02710000      -1.17980000      -0.00360000
C        0.03330000      -2.59550000      -0.01100000
C        1.15120000      -3.41400000      -0.02190000
N        0.72330000      -4.71180000      -0.02610000
C       -0.65010000      -4.75500000      -0.01820000
C       -1.10910000      -3.46330000      -0.00870000
H        0.99150000       1.89620000       0.00290000
H       -0.54670000       1.88030000      -0.86630000
H       -0.52980000       1.87130000       0.90120000
H        2.19890000      -3.16260000      -0.02680000
H        1.32660000      -5.51510000      -0.03390000
H       -1.17660000      -5.69560000      -0.02000000
H       -2.14010000      -3.14740000      -0.00100000
