17
Properties=species:S:1:pos:R:3 gdb_27728=T pbc="F F F"
C        0.02280000       1.54640000       0.06560000
C        0.00770000       0.04820000       0.03340000
C       -0.03630000      -0.76360000      -1.09990000
N       -0.02490000      -2.08490000      -0.66140000
C        0.02430000      -2.12100000       0.68950000
N       -0.02820000      -3.31600000       1.39170000
C        0.04830000      -0.80760000       1.15670000
C       -0.08600000      -0.50340000      -2.50700000
O       -0.11930000      -1.38380000      -3.35830000
H        0.92510000       1.92320000       0.56050000
H       -0.00960000       1.97700000      -0.93750000
H       -0.83520000       1.93790000       0.62390000
H       -0.09640000      -2.85460000      -1.30760000
H        0.46940000      -4.08270000       0.95840000
H        0.24480000      -3.21730000       2.35900000
H        0.09600000      -0.51350000       2.19480000
H       -0.09490000       0.56890000      -2.79140000
