20
Properties=species:S:1:pos:R:3 gdb_85558=T pbc="F F F"
C        0.47650000       1.38440000      -0.31720000
C       -0.06220000       0.03170000       0.16370000
O       -0.08590000      -0.88780000      -0.94660000
C        0.91180000      -1.78320000      -1.17290000
N        0.88840000      -2.55470000      -2.17800000
C        2.05160000      -1.84630000      -0.18060000
C        1.66280000      -1.37370000       1.19030000
C        0.67830000      -0.49680000       1.36920000
C        0.25060000       0.02720000       2.71090000
H        1.53340000       1.30470000      -0.58870000
H       -0.08630000       1.72210000      -1.19140000
H        0.38150000       2.13980000       0.46890000
H       -1.12220000       0.15090000       0.41920000
H        0.05680000      -2.36640000      -2.74180000
H        2.41900000      -2.87480000      -0.17300000
H        2.88280000      -1.24010000      -0.57160000
H        2.22060000      -1.76130000       2.03860000
H        0.86740000      -0.38930000       3.51130000
H        0.32530000       1.12060000       2.76330000
H       -0.79680000      -0.22490000       2.91980000
