16
Properties=species:S:1:pos:R:3 gdb_60511=T pbc="F F F"
O        0.17370000       1.60080000      -0.03060000
C        0.08830000       0.20490000      -0.06540000
C        0.71010000      -0.36610000      -1.32850000
C        0.19280000      -1.65110000      -1.93100000
C       -0.08550000      -0.33700000      -2.60850000
C        0.76220000      -0.37370000       1.17200000
O        1.32250000       0.32140000       1.98640000
C        0.69790000      -1.83200000       1.34560000
N        0.62320000      -2.97580000       1.49760000
H        0.64830000       1.83380000       0.78160000
H       -0.96770000      -0.11950000      -0.02690000
H        1.77530000      -0.17020000      -1.41250000
H        0.91660000      -2.32530000      -2.37320000
H       -0.63040000      -2.15480000      -1.43620000
H       -1.09470000       0.05800000      -2.56380000
H        0.44500000      -0.10030000      -3.52330000
