21
Properties=species:S:1:pos:R:3 gdb_89296=T pbc="F F F"
C       -0.36030000       1.51980000       0.22030000
C        0.09300000       0.09740000      -0.02100000
C       -1.01660000      -0.99870000      -0.11280000
C       -0.43400000      -1.68300000       1.16290000
O       -0.32740000      -3.07450000       1.24470000
C        0.82880000      -0.78870000       1.06840000
C        1.88610000      -1.16760000      -0.00570000
O        1.83010000      -2.54160000      -0.37810000
C        1.25800000      -0.15540000      -1.00920000
H        0.48500000       2.17740000       0.45320000
H       -0.86260000       1.92630000      -0.66640000
H       -1.06910000       1.57800000       1.05410000
H       -2.04700000      -0.64290000      -0.02850000
H       -0.93760000      -1.62500000      -1.00580000
H       -1.01320000      -1.37020000       2.03860000
H        0.33620000      -3.33220000       0.59170000
H        1.24190000      -0.39480000       1.99870000
H        2.90970000      -0.90800000       0.29160000
H        2.33890000      -2.66200000      -1.18560000
H        0.98830000      -0.55870000      -1.99110000
H        1.89410000       0.72400000      -1.15290000
