17
Properties=species:S:1:pos:R:3 gdb_24364=T pbc="F F F"
C       -0.01470000       1.50000000      -0.02090000
N        1.30790000       2.15430000      -0.05220000
C        2.24660000       1.44210000      -0.82990000
C        2.07720000       0.09330000      -1.11470000
N        3.16510000      -0.30540000      -1.85980000
C        4.00880000       0.75980000      -2.04230000
C        3.47210000       1.86180000      -1.40480000
C        1.02730000      -0.68460000      -0.51240000
C        0.03050000      -0.01280000       0.09120000
H       -0.59000000       1.94000000       0.79840000
H       -0.53690000       1.77480000      -0.95240000
H        1.65840000       2.34180000       0.88240000
H        3.28400000      -1.21280000      -2.27500000
H        4.90620000       0.66020000      -2.63150000
H        3.90460000       2.84970000      -1.36970000
H        1.08660000      -1.76890000      -0.49160000
H       -0.75770000      -0.52750000       0.63010000
