23
Properties=species:S:1:pos:R:3 gdb_122303=T pbc="F F F"
C       -0.22910000       1.48370000      -0.12080000
C        0.02000000      -0.01030000       0.00080000
O        0.61460000      -0.46740000      -1.19520000
C        0.89610000      -1.85470000      -1.18320000
C        1.58100000      -2.22740000      -2.45750000
C        0.83100000      -2.51570000      -3.72890000
C        1.69270000      -3.59760000      -3.13850000
C        3.16670000      -3.33500000      -3.47150000
C        3.05200000      -1.93170000      -2.78880000
H        0.71140000       2.01640000      -0.28790000
H       -0.89470000       1.69380000      -0.96290000
H       -0.69070000       1.87050000       0.79280000
H        0.67820000      -0.22380000       0.86110000
H       -0.92750000      -0.54620000       0.18550000
H        1.53610000      -2.09940000      -0.31650000
H       -0.03580000      -2.43650000      -1.06900000
H       -0.23940000      -2.65420000      -3.61170000
H        1.11770000      -2.03010000      -4.65950000
H        1.27540000      -4.54780000      -2.82490000
H        3.85370000      -3.99760000      -2.94040000
H        3.42380000      -3.34970000      -4.53590000
H        3.23230000      -1.05450000      -3.41760000
H        3.67890000      -1.85340000      -1.89680000
