18
Properties=species:S:1:pos:R:3 gdb_78188=T pbc="F F F"
C       -0.35220000       1.48730000       0.02130000
C       -0.01230000       0.01720000      -0.10690000
C        0.62180000      -0.68970000      -1.24030000
C        1.74950000       0.09080000      -1.92500000
N        1.51670000       1.26540000      -2.72810000
C        2.39310000       0.21120000      -0.48960000
C        2.68050000       1.51710000       0.08640000
N        2.93830000       2.54680000       0.54500000
N        1.30140000      -0.62120000       0.13820000
H        0.34850000       2.16220000      -0.46890000
H       -1.34860000       1.65840000      -0.40120000
H       -0.38590000       1.77230000       1.07740000
H       -0.76260000      -0.60530000       0.37980000
H        0.22510000      -1.62750000      -1.61860000
H        2.37970000      -0.58820000      -2.50280000
H        1.50640000       1.04300000      -3.71560000
H        0.64300000       1.72310000      -2.50330000
H        3.31550000      -0.37310000      -0.43590000
