19
Properties=species:S:1:pos:R:3 gdb_91367=T pbc="F F F"
O        0.31170000       1.34030000      -0.29130000
C        0.07600000      -0.01890000      -0.02810000
C        0.64440000      -0.58100000       1.32080000
C       -0.58120000      -1.32510000       1.88310000
C       -1.59320000      -0.32330000       2.47260000
C       -2.19240000       0.29410000       1.17230000
O       -2.01990000       1.70370000       1.03730000
C       -1.40600000      -0.47850000       0.07910000
O       -1.26770000      -1.76470000       0.68750000
H       -0.31500000       1.84570000       0.24420000
H        0.52410000      -0.56840000      -0.86100000
H        1.48070000      -1.26270000       1.15140000
H        0.99170000       0.23120000       1.96440000
H       -0.36540000      -2.18990000       2.51000000
H       -2.35830000      -0.83830000       3.05840000
H       -1.12810000       0.44170000       3.10090000
H       -3.25740000       0.04870000       1.08370000
H       -2.46700000       2.14090000       1.76780000
H       -1.92610000      -0.56630000      -0.87430000
