17
Properties=species:S:1:pos:R:3 gdb_76433=T pbc="F F F"
N       -0.37450000       1.43590000      -0.08930000
C       -0.07330000       0.02660000      -0.08090000
C        1.04870000      -0.47510000      -0.97760000
C        2.34290000       0.12460000      -0.64180000
N        3.34940000       0.62200000      -0.36920000
C       -0.33320000      -0.68660000       1.24070000
O       -0.74510000       0.06040000       2.33450000
C       -1.31530000      -0.84700000       0.10080000
O       -2.51250000      -0.15620000       0.26020000
H        0.03390000       1.90350000       0.71360000
H       -0.05690000       1.89260000      -0.93580000
H        1.13460000      -1.56500000      -0.90160000
H        0.82620000      -0.25750000      -2.03090000
H        0.32860000      -1.50960000       1.50000000
H       -1.70170000       0.17910000       2.22330000
H       -1.41660000      -1.79160000      -0.42580000
H       -2.28640000       0.77090000       0.04470000
