21
Properties=species:S:1:pos:R:3 gdb_89847=T pbc="F F F"
O       -0.17880000       1.50170000      -0.38840000
C       -0.04360000       0.11800000      -0.04470000
C       -1.38920000      -0.60650000      -0.01750000
C       -1.69890000      -0.79060000      -1.50290000
C       -2.98180000      -1.40130000      -1.97820000
C       -2.75180000       0.08080000      -2.16660000
C       -0.35250000      -1.04910000      -2.19330000
C        0.74220000      -0.61350000      -1.16530000
O        1.76550000       0.19080000      -1.70130000
H       -0.88620000       1.57030000      -1.04090000
H        0.48890000       0.10630000       0.90920000
H       -1.26710000      -1.58070000       0.47390000
H       -2.15700000      -0.05190000       0.53020000
H       -2.94780000      -2.03360000      -2.85950000
H       -3.71090000      -1.71170000      -1.23640000
H       -3.33180000       0.76260000      -1.55140000
H       -2.55950000       0.43910000      -3.17320000
H       -0.23580000      -2.10560000      -2.45570000
H       -0.23650000      -0.47430000      -3.11640000
H        1.22140000      -1.50420000      -0.74280000
H        1.46300000       1.10110000      -1.56570000
