20
Properties=species:S:1:pos:R:3 gdb_114007=T pbc="F F F"
C       -0.36450000       1.11260000      -0.93490000
C       -0.09380000       0.12990000       0.21160000
C       -1.29790000      -0.73890000       0.49310000
O       -1.57580000      -1.80850000      -0.42160000
C       -1.26910000      -2.14160000       0.93990000
C       -0.00870000      -2.93400000       1.18050000
O       -0.22790000      -4.33230000       0.99310000
C       -0.28480000      -4.76150000      -0.28900000
N       -0.51440000      -5.97890000      -0.52650000
H        0.50860000       1.74260000      -1.12640000
H       -0.60580000       0.57280000      -1.85530000
H       -1.20830000       1.77040000      -0.70060000
H        0.77240000      -0.49160000      -0.03280000
H        0.15570000       0.68170000       1.12710000
H       -2.19180000      -0.17300000       0.76830000
H       -2.12520000      -2.51190000       1.50630000
H        0.80430000      -2.58500000       0.53530000
H        0.30670000      -2.83120000       2.22300000
H       -0.11660000      -3.96660000      -1.02530000
H       -0.51180000      -6.13920000      -1.53180000
