18
Properties=species:S:1:pos:R:3 gdb_87939=T pbc="F F F"
O       -0.27460000       1.38550000      -0.32610000
C       -0.12520000       0.00600000      -0.17760000
C       -0.21630000      -0.62270000       1.20250000
C       -1.34530000      -0.78170000       0.21850000
C       -2.71130000      -0.11840000       0.39780000
C       -3.59500000      -0.81710000      -0.65260000
C       -2.88820000      -2.14590000      -0.94460000
O       -3.32050000      -3.09830000      -1.55390000
N       -1.63650000      -2.04930000      -0.38860000
H        0.49650000       1.81640000       0.05780000
H        0.55190000      -0.46670000      -0.89120000
H        0.41700000      -1.47680000       1.42290000
H       -0.38850000       0.04480000       2.04160000
H       -3.08750000      -0.32020000       1.40580000
H       -2.64250000       0.96180000       0.26820000
H       -4.62100000      -0.99620000      -0.32730000
H       -3.64310000      -0.25370000      -1.59110000
H       -0.95360000      -2.77620000      -0.53180000
