16
Properties=species:S:1:pos:R:3 gdb_53623=T pbc="F F F"
C       -0.36610000       1.34000000      -0.42490000
C       -0.28270000      -0.07920000      -0.10690000
C       -0.20960000      -1.24580000       0.18840000
C       -0.14360000      -2.67010000       0.53500000
N       -1.36230000      -3.44060000       0.27320000
C       -1.80370000      -3.47840000      -0.92430000
N       -1.28830000      -2.88400000      -2.05540000
C       -2.97880000      -4.29830000      -1.17130000
N       -3.91370000      -4.93550000      -1.40680000
H        0.41250000       1.63840000      -1.13510000
H       -1.33610000       1.59030000      -0.86780000
H       -0.24680000       1.95100000       0.47610000
H        0.70150000      -3.13150000      -0.00130000
H        0.07760000      -2.76770000       1.60260000
H       -0.74620000      -2.04300000      -1.90320000
H       -1.87850000      -2.86880000      -2.87270000
