11
Properties=species:S:1:pos:R:3 gdb_23975=T pbc="F F F"
C        0.00340000      -1.19490000      -0.00330000
C       -0.00110000       0.00740000       0.00300000
C       -0.02280000       1.42030000       0.01050000
C       -1.10760000       2.25350000       0.03030000
O       -0.66870000       3.53260000       0.03060000
C        0.68780000       3.42130000       0.01060000
N        1.12840000       2.20270000      -0.00200000
C        1.44480000       4.62170000       0.00590000
N        2.05630000       5.60310000       0.00210000
H        0.01510000      -2.25710000      -0.00890000
H       -2.17250000       2.09900000       0.04480000
