20
Properties=species:S:1:pos:R:3 gdb_10070=T pbc="F F F"
C        0.36210000       1.41710000      -0.16460000
C        0.08700000      -0.09050000      -0.14330000
C       -1.38880000      -0.49370000       0.04310000
C       -2.24760000      -0.28570000      -1.20800000
O       -2.37140000       1.10270000      -1.47850000
C       -1.50520000      -1.98220000       0.46590000
C       -0.90370000      -2.27430000       1.76100000
C       -0.41450000      -2.50150000       2.83540000
H        1.43560000       1.60810000      -0.26580000
H       -0.16120000       1.90860000      -0.98540000
H        0.02980000       1.88570000       0.76850000
H        0.45930000      -0.54970000      -1.07050000
H        0.66370000      -0.54220000       0.67170000
H       -1.82580000       0.11610000       0.84420000
H       -1.78600000      -0.81710000      -2.05780000
H       -3.24100000      -0.73510000      -1.04470000
H       -2.88110000       1.20620000      -2.28720000
H       -2.56360000      -2.27170000       0.49410000
H       -1.03770000      -2.61460000      -0.30190000
H        0.01720000      -2.71010000       3.78270000
