21
Properties=species:S:1:pos:R:3 gdb_76341=T pbc="F F F"
C       -0.84380000       1.13730000      -0.16190000
C       -0.00080000      -0.12680000      -0.09350000
C        1.32090000      -0.20940000      -0.89820000
O        1.94080000       1.07290000      -1.00880000
C        1.94700000      -1.01260000       0.28230000
O        3.27740000      -0.71690000       0.60770000
C        0.77690000      -0.51020000       1.20310000
C        1.16680000       0.64470000       2.11760000
O        0.08300000      -1.51820000       1.91970000
H       -0.24550000       2.03190000       0.02420000
H       -1.30010000       1.24630000      -1.15140000
H       -1.65260000       1.10070000       0.57490000
H       -0.60940000      -0.99780000      -0.35790000
H        1.27320000      -0.69540000      -1.87790000
H        2.60740000       1.01910000      -1.69960000
H        1.86040000      -2.09390000       0.14270000
H        3.38140000       0.22660000       0.42390000
H        1.61280000       1.47260000       1.56090000
H        0.28560000       1.01890000       2.64680000
H        1.90350000       0.30750000       2.85580000
H        0.58260000      -1.71460000       2.71990000
