10
Properties=species:S:1:pos:R:3 gdb_3920=T pbc="F F F"
O       -0.04920000      -0.03450000      -0.00160000
C        0.01660000       1.16930000       0.00780000
C        1.26110000       1.95480000      -0.00030000
N        2.48790000       1.40660000      -0.01810000
N        3.27920000       2.45500000      -0.01880000
N        2.70510000       3.65680000      -0.00390000
C        1.40890000       3.35750000       0.00840000
H       -0.89820000       1.80250000       0.02100000
H        4.28340000       2.35570000      -0.03050000
H        0.65910000       4.13270000       0.02240000
