17
Properties=species:S:1:pos:R:3 gdb_73181=T pbc="F F F"
N        0.11410000       1.36150000       0.02280000
C       -0.03600000      -0.06700000      -0.04770000
C        0.31400000      -0.90140000      -1.32170000
C       -1.06510000      -1.62900000      -1.22390000
C       -1.40270000      -0.81540000       0.04340000
O       -0.99810000      -1.49330000       1.25940000
C        0.25780000      -0.79060000       1.29710000
C        1.42280000      -1.67430000       1.36670000
N        2.35750000      -2.35350000       1.40290000
H        1.09440000       1.60660000       0.14510000
H       -0.17800000       1.79240000      -0.85010000
H        0.40070000      -0.26240000      -2.20450000
H        1.20770000      -1.52680000      -1.25920000
H       -1.72970000      -1.42670000      -2.06730000
H       -1.02990000      -2.70520000      -1.04770000
H       -2.37740000      -0.33510000       0.14740000
H        0.29210000      -0.08240000       2.13420000
