19
Properties=species:S:1:pos:R:3 gdb_93290=T pbc="F F F"
C        0.00860000       1.62800000      -0.04260000
C       -0.01500000       0.09570000       0.02350000
C        0.83370000      -0.53930000      -1.10110000
O        2.14610000      -0.75500000      -0.55080000
C        2.09040000      -0.79770000       0.80870000
O        3.03940000      -1.07510000       1.48770000
C        0.69760000      -0.46250000       1.24720000
C        0.48410000      -0.03530000       2.67590000
C        0.06930000      -1.41150000       2.25640000
H        1.03650000       2.00540000      -0.02470000
H       -0.46620000       1.98340000      -0.96290000
H       -0.52460000       2.07070000       0.80340000
H       -1.04850000      -0.25740000      -0.04120000
H        0.43110000      -1.50580000      -1.42510000
H        0.94430000       0.10820000      -1.97400000
H        1.37760000       0.06040000       3.28270000
H       -0.29020000       0.69950000       2.86680000
H       -0.98880000      -1.62100000       2.14020000
H        0.67460000      -2.24830000       2.58570000
