15
Properties=species:S:1:pos:R:3 gdb_8642=T pbc="F F F"
C       -0.07290000       1.40700000       0.06450000
O        0.04260000      -0.00870000       0.01170000
C        0.68770000      -0.54940000      -1.13130000
C        2.16880000      -0.11970000      -1.24450000
C        0.59990000      -2.00960000      -1.00630000
C        0.56920000      -3.20510000      -0.91480000
C       -0.03240000      -0.13550000      -2.37170000
N       -0.58120000       0.22570000      -3.32200000
H        0.89870000       1.89900000       0.19660000
H       -0.56240000       1.80870000      -0.83170000
H       -0.69550000       1.61910000       0.93530000
H        2.67710000      -0.38660000      -0.31550000
H        2.64500000      -0.63970000      -2.07790000
H        2.25090000       0.95560000      -1.41400000
H        0.52530000      -4.26360000      -0.83190000
