19
Properties=species:S:1:pos:R:3 gdb_72695=T pbc="F F F"
C       -0.09370000       1.49530000       0.12060000
C        0.02800000      -0.02140000       0.09220000
C       -1.35530000      -0.70590000       0.28330000
C       -0.99630000      -1.34020000       1.68320000
C        0.24280000      -2.14010000       1.28770000
C        0.75910000      -0.69360000       1.22450000
C        2.04290000      -0.40950000       0.42840000
O        1.18430000      -0.40080000      -0.76510000
O       -0.08170000      -0.38600000       2.38870000
H        0.87880000       1.98850000       0.19120000
H       -0.57900000       1.83900000      -0.79920000
H       -0.70260000       1.81050000       0.97190000
H       -2.17070000       0.01920000       0.30610000
H       -1.60480000      -1.49200000      -0.43260000
H       -1.79540000      -1.70250000       2.32790000
H        0.69150000      -2.66860000       2.12980000
H        0.23030000      -2.74310000       0.37820000
H        2.52530000       0.55950000       0.58970000
H        2.78860000      -1.20770000       0.39030000
