18
Properties=species:S:1:pos:R:3 gdb_81389=T pbc="F F F"
C       -0.34370000       1.57310000      -0.15690000
C       -0.02630000       0.09280000      -0.03490000
C        1.11120000      -0.61530000      -0.81660000
C        2.39580000       0.16140000      -0.45750000
C        2.18550000       0.17230000       1.09950000
C        2.23120000       1.47480000       1.74740000
N        2.26650000       2.50020000       2.28130000
C        0.79970000      -0.55220000       1.10890000
O        1.09560000      -1.65630000       0.21350000
H        0.53490000       2.21490000      -0.07140000
H       -0.81610000       1.77530000      -1.12430000
H       -1.04730000       1.88070000       0.62310000
H       -0.93010000      -0.51060000      -0.15050000
H        0.99920000      -0.98860000      -1.83410000
H        3.29430000      -0.38910000      -0.73840000
H        2.44120000       1.16070000      -0.89430000
H        2.91340000      -0.47640000       1.59290000
H        0.38850000      -0.84010000       2.07570000
