19
Properties=species:S:1:pos:R:3 gdb_45733=T pbc="F F F"
O       -0.36200000       0.07560000       0.01300000
C       -0.21600000       1.27180000       0.01540000
C       -1.33800000       2.32110000       0.03470000
C       -0.57820000       3.62020000       0.02910000
C        0.74440000       3.43730000       0.01020000
C        1.13670000       1.99040000      -0.00050000
C        2.18850000       1.52140000       1.06570000
C        3.28110000       1.50450000      -0.03180000
C        2.15880000       1.52940000      -1.09860000
H       -1.99590000       2.18690000      -0.83370000
H       -1.97190000       2.18040000       0.91980000
H       -1.07090000       4.58560000       0.03940000
H        1.47930000       4.23550000       0.00310000
H        2.33270000       2.17850000       1.92650000
H        1.93850000       0.51590000       1.41460000
H        3.87480000       2.42280000      -0.03650000
H        3.96440000       0.65260000      -0.04430000
H        1.89920000       0.52650000      -1.44800000
H        2.27930000       2.19290000      -1.95820000
