22
Properties=species:S:1:pos:R:3 gdb_120787=T pbc="F F F"
C       -0.30970000       1.53690000      -0.03300000
C       -0.25540000       0.01550000      -0.19140000
C        0.93750000      -0.45870000      -1.03400000
C        0.98390000      -1.96720000      -1.17600000
C        0.22880000      -2.67510000      -2.27730000
C        1.73720000      -2.68800000      -2.27160000
C        2.52870000      -1.93950000      -3.33500000
C        2.71240000      -2.73740000      -4.54920000
N        2.85560000      -3.37790000      -5.50030000
H        0.59540000       1.91790000       0.45300000
H       -0.39560000       2.03420000      -1.00570000
H       -1.16700000       1.84410000       0.57370000
H       -0.20540000      -0.45640000       0.79860000
H       -1.18350000      -0.34480000      -0.65230000
H        0.88160000       0.01690000      -2.02120000
H        1.86890000      -0.09980000      -0.57390000
H        1.00060000      -2.48490000      -0.21930000
H       -0.30080000      -3.59540000      -2.05930000
H       -0.25790000      -2.05160000      -3.02210000
H        2.20450000      -3.62440000      -1.98180000
H        2.02880000      -1.00690000      -3.61460000
H        3.51960000      -1.66070000      -2.95580000
