16
Properties=species:S:1:pos:R:3 gdb_61719=T pbc="F F F"
N       -0.58230000      -0.12320000      -1.20700000
C       -0.67930000      -0.70000000       0.02450000
N        0.48320000      -1.35940000       0.48290000
C        1.63360000      -1.64210000      -0.19160000
O        1.88940000      -1.33620000      -1.34070000
N       -1.65600000      -0.69170000       0.85330000
C       -2.85330000       0.05410000       0.48460000
C       -3.55700000      -0.44150000      -0.70600000
C       -4.09910000      -0.84760000      -1.70060000
H        0.22940000      -0.38260000      -1.75600000
H       -1.45240000       0.02010000      -1.69730000
H        0.38430000      -1.69110000       1.43160000
H        2.34470000      -2.20070000       0.44310000
H       -3.54190000       0.01690000       1.33560000
H       -2.61800000       1.11990000       0.32550000
H       -4.60060000      -1.21690000      -2.56100000
