14
Properties=species:S:1:pos:R:3 gdb_125739=T pbc="F F F"
C       -0.03510000       1.52960000       0.02780000
C       -0.01010000       0.02880000       0.01660000
N       -0.04030000      -0.55180000      -1.13260000
O       -0.01850000      -1.91650000      -1.16580000
C        0.03600000      -2.71560000       0.01410000
O        0.04950000      -3.89670000      -0.16560000
N        0.06720000      -2.07280000       1.22190000
C        0.04600000      -0.77150000       1.24090000
N        0.07670000      -0.13740000       2.43010000
H        0.86230000       1.93970000       0.50620000
H       -0.07700000       1.89540000      -0.99900000
H       -0.91030000       1.90980000       0.56790000
H        0.11490000      -0.69850000       3.26590000
H        0.06190000       0.86260000       2.50690000
