22
Properties=species:S:1:pos:R:3 gdb_107027=T pbc="F F F"
C       -0.02160000       0.67970000       1.02780000
O       -0.17120000      -0.45590000       0.19180000
C       -1.48110000      -0.82520000      -0.01420000
C       -2.30210000      -1.55340000       1.02570000
C       -1.99680000      -2.20710000      -0.31360000
N       -2.82420000      -1.70860000      -1.40510000
C       -4.23470000      -2.04840000      -1.41530000
C       -2.36680000      -0.29410000      -1.15670000
C       -3.40540000       0.78180000      -0.87220000
H        1.05110000       0.83930000       1.15850000
H       -0.46110000       1.58060000       0.57730000
H       -0.48640000       0.51810000       2.01020000
H       -1.70870000      -1.94100000       1.84850000
H       -3.30900000      -1.24940000       1.29680000
H       -1.46730000      -3.15030000      -0.39410000
H       -4.78030000      -1.81590000      -0.48430000
H       -4.73480000      -1.53090000      -2.24010000
H       -4.33320000      -3.12460000      -1.59440000
H       -1.73600000       0.02180000      -1.99720000
H       -4.00400000       0.56070000       0.01560000
H       -2.90670000       1.74340000      -0.71140000
H       -4.08850000       0.90650000      -1.71920000
