10
Properties=species:S:1:pos:R:3 gdb_21432=T pbc="F F F"
N       -0.01860000       1.22980000       0.37920000
C       -0.01240000       0.02840000       0.01910000
O        1.14870000      -0.61930000      -0.37130000
C        1.06970000      -1.91390000      -0.74530000
N        0.04940000      -2.66660000      -0.79780000
O       -1.18010000      -2.08860000      -0.41620000
C       -1.28420000      -0.78590000      -0.00850000
O       -2.35000000      -0.35480000       0.30070000
H        0.91910000       1.63460000       0.34120000
H        2.02740000      -2.33000000      -1.03220000
