21
Properties=species:S:1:pos:R:3 gdb_105244=T pbc="F F F"
C       -0.42840000       1.51660000       0.55480000
C       -0.13090000       0.03450000       0.55730000
N        1.08550000      -0.44610000      -0.13390000
C        0.96510000      -0.60930000       1.33300000
C        1.99950000       0.22710000       2.10110000
O        2.57500000       1.24620000       1.31770000
C        0.80560000      -1.98730000       1.91320000
C       -0.18040000      -2.25710000       2.99290000
N       -0.34690000      -2.86340000       1.66170000
H       -0.85440000       1.81590000      -0.40870000
H       -1.16250000       1.75460000       1.33240000
H        0.47570000       2.09770000       0.73810000
H       -1.01870000      -0.57870000       0.40020000
H        0.91320000      -1.32560000      -0.61380000
H        1.52840000       0.69050000       2.97670000
H        2.77620000      -0.45920000       2.47980000
H        2.52670000       0.91490000       0.40600000
H        1.74370000      -2.54050000       1.94740000
H        0.05640000      -2.95320000       3.79210000
H       -0.84500000      -1.44470000       3.27600000
H       -1.07630000      -2.37110000       1.15240000
