17
Properties=species:S:1:pos:R:3 gdb_117074=T pbc="F F F"
C       -0.08290000       1.37550000       0.01000000
O        0.00610000      -0.03180000       0.00160000
C       -1.24190000      -0.65010000       0.01020000
C       -1.06260000      -2.15740000       0.00020000
O       -0.00490000      -2.72300000      -0.01290000
C       -2.40590000      -2.92130000       0.00900000
O       -3.47470000      -2.35900000       0.02230000
O       -2.22510000      -4.23910000       0.00020000
C       -3.42710000      -5.02490000       0.00760000
H        0.93840000       1.76180000       0.00230000
H       -0.61640000       1.75610000      -0.87490000
H       -0.59920000       1.74640000       0.90910000
H       -1.84460000      -0.38030000       0.89590000
H       -1.86150000      -0.37070000      -0.86080000
H       -4.01610000      -4.81200000       0.90310000
H       -4.03260000      -4.80350000      -0.87470000
H       -3.09960000      -6.06360000      -0.00040000
