19
Properties=species:S:1:pos:R:3 gdb_106783=T pbc="F F F"
O       -0.01780000       1.52150000       0.00190000
C        0.05320000       0.10430000       0.05330000
C       -1.32130000      -0.51330000       0.03310000
C       -2.00820000      -1.13750000      -1.16290000
C       -1.82690000      -1.95100000       0.09010000
O       -1.06610000      -3.10690000       0.12960000
C       -2.88610000      -1.57840000       1.13810000
C       -2.41260000      -0.09180000       1.03450000
O       -1.92890000       0.50450000       2.22560000
H       -0.48530000       1.79080000       0.80230000
H        0.63980000      -0.21750000      -0.81230000
H        0.60230000      -0.22530000       0.95030000
H       -2.99230000      -0.80130000      -1.48650000
H       -1.33300000      -1.40540000      -1.97060000
H       -1.48960000      -3.77190000      -0.42440000
H       -3.93380000      -1.80320000       0.91050000
H       -2.64120000      -1.98640000       2.12360000
H       -3.15150000       0.61190000       0.64020000
H       -1.35360000      -0.12950000       2.66880000
