20
Properties=species:S:1:pos:R:3 gdb_105874=T pbc="F F F"
C       -0.04190000       1.48690000      -0.22060000
C        0.04680000       0.02700000       0.17060000
N        1.22460000      -0.84380000      -0.04980000
C        2.44960000      -0.02150000       0.26050000
C        2.02470000       0.17010000       1.72730000
O        2.01230000       1.50880000       2.17810000
C        0.70690000      -0.53590000       1.37100000
C        0.13340000      -1.65380000       2.19650000
O        1.10130000      -2.65950000       2.45590000
H        0.73100000       2.10060000       0.23880000
H        0.01040000       1.59160000      -1.31010000
H       -1.01080000       1.88310000       0.10120000
H       -0.84580000      -0.53190000      -0.10980000
H        3.34900000      -0.62480000       0.12660000
H        2.54340000       0.89520000      -0.32680000
H        2.60900000      -0.46900000       2.39930000
H        1.75170000       1.51740000       3.10470000
H       -0.19060000      -1.28230000       3.17660000
H       -0.75270000      -2.07100000       1.69380000
H        1.43270000      -2.93340000       1.59170000
