17
Properties=species:S:1:pos:R:3 gdb_39563=T pbc="F F F"
C        0.00940000       1.52250000      -0.13530000
C        1.38220000       2.13150000       0.02510000
C        2.32100000       1.57470000       0.78640000
C        2.01280000       0.29680000       1.54120000
N        1.16000000       0.65230000       2.71540000
C        0.00780000       0.16340000       2.48950000
N       -0.18840000      -0.68440000       1.36010000
C       -0.00060000       0.00180000       0.03500000
C        1.13940000      -0.65560000       0.71040000
H       -0.68360000       1.98670000       0.58100000
H       -0.38940000       1.76160000      -1.12650000
H        1.57220000       3.06500000      -0.49680000
H        3.29180000       2.03880000       0.92250000
H        2.92780000      -0.18520000       1.89250000
H       -0.83730000       0.32240000       3.15350000
H       -0.50900000      -0.54100000      -0.75640000
H        1.54330000      -1.60090000       0.36390000
