18
Properties=species:S:1:pos:R:3 gdb_120369=T pbc="F F F"
O       -0.07990000       1.49480000      -0.11600000
C        0.04180000       0.08280000      -0.05750000
C       -1.36420000      -0.49670000       0.02560000
C       -1.38070000      -2.03340000       0.09540000
C       -0.94320000      -2.66180000       1.39850000
C       -1.93480000      -3.42960000       1.86030000
N       -3.04000000      -3.40730000       0.99670000
C       -2.81690000      -2.57300000      -0.08370000
O       -3.60310000      -2.32190000      -0.96740000
H        0.80300000       1.87190000      -0.16950000
H        0.55120000      -0.31330000      -0.95200000
H        0.63410000      -0.22810000       0.81860000
H       -1.86940000      -0.07780000       0.90280000
H       -1.93440000      -0.18600000      -0.85590000
H       -0.78990000      -2.42490000      -0.74630000
H        0.01770000      -2.52280000       1.86950000
H       -1.97690000      -4.03280000       2.75610000
H       -3.92230000      -3.86390000       1.15660000
