22
Properties=species:S:1:pos:R:3 gdb_90451=T pbc="F F F"
C        0.06180000       1.60330000      -0.09200000
C        0.05190000       0.08730000      -0.08090000
C       -1.12560000      -0.49550000       0.68110000
C        0.61070000      -0.72920000      -1.19810000
C        1.49630000      -0.10340000      -2.26600000
C        2.75980000       0.41120000      -1.53700000
O        2.85510000       1.82230000      -1.73400000
C        2.57240000      -0.01450000      -0.04940000
N        1.28740000      -0.71070000       0.12080000
H        0.88170000       2.03780000      -0.66380000
H       -0.87960000       1.97320000      -0.51370000
H        0.12320000       1.98400000       0.93530000
H       -2.07430000      -0.19840000       0.21930000
H       -1.07330000      -1.58660000       0.70200000
H       -1.13010000      -0.13880000       1.71750000
H        0.10900000      -1.65900000      -1.45960000
H        1.75620000      -0.85400000      -3.01720000
H        1.02350000       0.73090000      -2.79220000
H        3.66160000      -0.06150000      -1.94950000
H        3.63400000       2.13620000      -1.26350000
H        3.36080000      -0.71430000       0.24910000
H        2.64390000       0.85890000       0.60920000
