17
Properties=species:S:1:pos:R:3 gdb_34197=T pbc="F F F"
C        0.12820000      -1.20040000       0.08630000
C        0.05070000      -0.00180000       0.02720000
C       -0.07860000       1.42960000      -0.04550000
C       -1.12120000       2.16500000       0.84500000
C       -1.31050000       3.22770000      -0.26920000
C       -0.11250000       4.21180000      -0.36870000
C        0.72810000       3.08900000      -1.01880000
O        1.19310000       2.13460000      -0.03560000
C       -0.56490000       2.27030000      -1.27640000
H        0.20760000      -2.25820000       0.13900000
H       -2.01890000       1.55100000       0.96080000
H       -0.76630000       2.49080000       1.82600000
H       -2.31350000       3.62160000      -0.42600000
H       -0.32040000       5.00480000      -1.09490000
H        0.27750000       4.65340000       0.55240000
H        1.50550000       3.33520000      -1.74410000
H       -0.92900000       1.87530000      -2.22020000
