19
Properties=species:S:1:pos:R:3 gdb_101382=T pbc="F F F"
O        0.06100000       1.31630000      -0.33270000
C       -0.06880000      -0.02770000       0.13230000
C       -1.49700000      -0.52760000      -0.10260000
O       -1.87590000      -0.28940000      -1.44530000
C       -1.61990000      -2.02320000       0.13720000
O       -1.23800000      -2.42440000       1.48550000
C       -2.45880000      -3.16410000       1.61890000
C       -3.63870000      -2.25040000       1.58800000
C       -2.98850000      -2.68450000       0.28780000
H       -0.38780000       1.89160000       0.29620000
H        0.63150000      -0.61520000      -0.47090000
H        0.21020000      -0.12990000       1.18750000
H       -2.17020000       0.00800000       0.59070000
H       -1.45340000       0.54700000      -1.68410000
H       -0.99920000      -2.55270000      -0.59720000
H       -2.41050000      -4.13810000       2.09110000
H       -4.59910000      -2.72040000       1.77640000
H       -3.54450000      -1.23540000       1.96270000
H       -3.52180000      -3.20650000      -0.49350000
