16
Properties=species:S:1:pos:R:3 gdb_16128=T pbc="F F F"
O       -0.11990000       0.03240000       0.12970000
C        0.02160000       1.21690000      -0.06090000
C        1.31300000       1.92770000      -0.03080000
C        1.29540000       3.42060000       0.25110000
C        1.62140000       2.96980000      -1.13850000
C        3.06520000       2.75690000      -1.44800000
C        3.60900000       1.80470000      -0.68660000
C        2.60010000       1.15170000       0.23240000
H       -0.85340000       1.87110000      -0.28700000
H        0.32020000       3.86760000       0.42170000
H        2.09560000       3.81890000       0.86590000
H        0.91000000       3.16920000      -1.93320000
H        3.58580000       3.34450000      -2.19510000
H        4.65420000       1.51770000      -0.69700000
H        2.90490000       1.19870000       1.28520000
H        2.45010000       0.09020000       0.00160000
