21
Properties=species:S:1:pos:R:3 gdb_41503=T pbc="F F F"
C        0.01620000       1.51830000      -0.20780000
C        1.53870000       1.53710000       0.14130000
C        1.36520000       0.12640000       0.66760000
C        1.98740000      -0.62280000       1.57890000
C        1.54750000      -1.93130000       2.05950000
C        0.39080000      -2.58470000       1.85750000
C       -0.84690000      -2.18100000       1.09510000
C       -1.07990000      -0.68480000       0.83820000
C        0.01420000      -0.03220000       0.00080000
H       -0.58340000       2.02700000       0.55190000
H       -0.27360000       1.88770000      -1.19380000
H        2.16730000       1.58420000      -0.75610000
H        1.89090000       2.29950000       0.84230000
H        2.91510000      -0.24930000       2.00920000
H        2.28390000      -2.44680000       2.67350000
H        0.31630000      -3.57340000       2.30770000
H       -0.85780000      -2.72180000       0.13580000
H       -1.71560000      -2.57330000       1.64120000
H       -2.05030000      -0.56330000       0.34050000
H       -1.15010000      -0.15880000       1.79800000
H        0.10280000      -0.54530000      -0.96660000
