17
Properties=species:S:1:pos:R:3 gdb_38240=T pbc="F F F"
C       -0.01030000       1.63000000       0.16370000
C        1.45540000       1.18520000       0.01600000
N        1.12310000       0.05720000       1.01070000
C        0.00160000       0.08110000      -0.01160000
C       -1.16240000      -0.80390000      -0.32290000
O       -1.59320000      -0.45140000      -1.66930000
C       -0.77420000       0.21290000      -2.53170000
N        0.43060000       0.60660000      -2.41610000
C        1.01410000       0.22820000      -1.14820000
H       -0.29680000       1.97790000       1.15620000
H       -0.43150000       2.22460000      -0.64490000
H        2.36430000       1.77730000       0.12450000
H        1.73330000      -0.74530000       0.81470000
H       -0.88110000      -1.86350000      -0.32080000
H       -2.03950000      -0.66760000       0.31540000
H       -1.33160000       0.40100000      -3.44770000
H        1.69920000      -0.61850000      -1.28310000
