20
Properties=species:S:1:pos:R:3 gdb_70442=T pbc="F F F"
C       -0.13610000       1.53570000       0.09320000
C        0.01010000       0.04480000       0.01780000
C       -0.80170000      -0.94160000       0.83710000
C        0.69460000      -0.96320000       0.91060000
O        1.26150000      -1.68830000      -0.19100000
C        0.71610000      -0.70900000      -1.12270000
C       -0.06260000      -1.33400000      -2.25440000
C        0.49580000      -2.49930000      -2.98090000
N       -0.67680000      -2.66030000      -2.09820000
H        0.78840000       2.04380000      -0.20430000
H       -0.93980000       1.89210000      -0.56240000
H       -0.38100000       1.85610000       1.11080000
H       -1.29140000      -0.49230000       1.69670000
H       -1.35090000      -1.75700000       0.37820000
H        1.29360000      -0.87100000       1.80920000
H        1.53620000      -0.09680000      -1.52530000
H       -0.67320000      -0.62100000      -2.80690000
H        0.29900000      -2.62660000      -4.04150000
H        1.44750000      -2.89590000      -2.63750000
H       -0.33950000      -3.05020000      -1.21980000
