18
Properties=species:S:1:pos:R:3 gdb_50651=T pbc="F F F"
O       -0.72300000       0.90040000      -0.62090000
C        0.11020000       1.01460000       0.24140000
C        1.35440000       1.87190000       0.12630000
C        1.46390000       2.60910000      -1.21880000
N        2.64130000       3.47060000      -1.31570000
C        2.71850000       4.45690000      -0.23300000
C        2.59150000       3.83650000       1.15840000
O        3.35750000       4.07400000       2.06170000
C        1.41670000       2.87320000       1.30960000
H        0.00300000       0.48480000       1.21700000
H        2.21110000       1.18660000       0.23290000
H        1.48150000       1.89070000      -2.04240000
H        0.56910000       3.22640000      -1.36560000
H        3.48360000       2.90300000      -1.31060000
H        3.66050000       5.00690000      -0.29080000
H        1.89910000       5.17870000      -0.36650000
H        0.49670000       3.47610000       1.31170000
H        1.49170000       2.37140000       2.27790000
