20
Properties=species:S:1:pos:R:3 gdb_88638=T pbc="F F F"
C        0.13080000       1.52080000      -0.23980000
C        0.02340000       0.03510000       0.03120000
C        1.21850000      -0.88580000      -0.15910000
C        0.63780000      -0.64120000       1.22470000
N        1.29930000       0.03720000       2.30610000
C        2.42050000       0.98500000       2.11380000
C        3.10650000       0.31860000       3.31490000
O        4.04820000       0.57210000       4.00200000
C        2.06130000      -0.80220000       3.26110000
H        1.13290000       1.90900000      -0.04200000
H       -0.09770000       1.73480000      -1.28940000
H       -0.57340000       2.08810000       0.37840000
H       -0.93620000      -0.38270000      -0.26420000
H        1.08340000      -1.85670000      -0.62370000
H        2.15700000      -0.40480000      -0.41590000
H        0.04850000      -1.46170000       1.62600000
H        3.01550000       0.83710000       1.19870000
H        2.16360000       2.04530000       2.20340000
H        1.53690000      -1.05320000       4.18960000
H        2.48650000      -1.72220000       2.82640000
