20
Properties=species:S:1:pos:R:3 gdb_72555=T pbc="F F F"
C       -0.03010000       1.51090000       0.01670000
C        0.02260000      -0.00180000       0.04380000
C        0.71260000      -0.68480000      -1.18830000
C        0.94820000      -2.15410000      -0.71960000
C        0.34500000      -2.13090000       0.70950000
C        0.74480000      -0.72760000       1.20160000
N       -1.10820000      -1.94200000       0.60710000
C       -1.35930000      -0.68360000       0.09530000
O       -2.42310000      -0.24960000      -0.28580000
H        0.96880000       1.94000000      -0.11340000
H       -0.66610000       1.85240000      -0.80520000
H       -0.45490000       1.90770000       0.94410000
H        0.09520000      -0.61280000      -2.08710000
H        1.65870000      -0.17620000      -1.39740000
H        0.44710000      -2.89060000      -1.35300000
H        2.01230000      -2.40810000      -0.69380000
H        0.60120000      -2.97610000       1.34840000
H        1.82670000      -0.56540000       1.20170000
H        0.33430000      -0.49310000       2.18680000
H       -1.74330000      -2.69910000       0.40050000
