9
Properties=species:S:1:pos:R:3 gdb_4219=T pbc="F F F"
F        0.00590000       0.04420000       0.00310000
C       -0.00110000       1.36250000       0.01050000
C       -1.22120000       2.04810000       0.03040000
N       -1.23780000       3.37210000       0.03770000
N       -0.07740000       4.03420000       0.02570000
C        1.04220000       3.32020000       0.00670000
N        1.14640000       1.98170000      -0.00170000
H       -2.17370000       1.52970000       0.04020000
H        1.96850000       3.88650000      -0.00230000
