19
Properties=species:S:1:pos:R:3 gdb_18720=T pbc="F F F"
C       -0.05110000       1.53480000       0.02640000
C        0.03700000       0.00560000       0.00470000
C        0.73750000      -0.50510000      -1.26400000
O        0.88890000      -1.91390000      -1.23510000
C        1.84260000      -2.34130000      -0.27770000
C        1.65020000      -1.71010000       1.09490000
N        2.20650000      -0.35210000       1.26800000
C        0.74610000      -0.53810000       1.23210000
H        0.95020000       1.97530000       0.06700000
H       -0.55730000       1.91650000      -0.86700000
H       -0.60960000       1.88710000       0.90010000
H       -0.97680000      -0.41690000       0.00550000
H        0.13200000      -0.27890000      -2.14690000
H        1.71450000      -0.01100000      -1.37890000
H        1.72600000      -3.42730000      -0.20950000
H        2.86360000      -2.12580000      -0.63210000
H        1.72830000      -2.39150000       1.93880000
H        2.52310000      -0.21920000       2.22440000
H        0.20340000      -0.42880000       2.17000000
