23
Properties=species:S:1:pos:R:3 gdb_68785=T pbc="F F F"
C        0.01120000       1.56010000       0.12990000
C       -0.01970000       0.06010000       0.08270000
C        1.16290000      -0.77670000      -0.36460000
C        0.59260000      -0.97560000       1.01420000
O        1.34420000      -0.73210000       2.15570000
C       -0.69820000      -1.82550000       1.00450000
C       -0.57770000      -3.28340000       0.56080000
C       -1.42290000      -1.72480000       2.34830000
C       -1.28550000      -0.80320000      -0.04110000
H        0.98340000       1.91950000       0.48190000
H       -0.16880000       1.99730000      -0.85970000
H       -0.75450000       1.95160000       0.80940000
H        1.06220000      -1.52170000      -1.15110000
H        2.11020000      -0.24470000      -0.36840000
H        2.07810000      -1.35560000       2.17660000
H       -0.02880000      -3.87590000       1.30250000
H       -1.56730000      -3.74060000       0.44520000
H       -0.05610000      -3.37960000      -0.39650000
H       -1.50970000      -0.68480000       2.67750000
H       -2.43130000      -2.14700000       2.27420000
H       -0.88130000      -2.26970000       3.12830000
H       -2.19070000      -0.30850000       0.32200000
H       -1.48190000      -1.20530000      -1.04110000
