22
Properties=species:S:1:pos:R:3 gdb_60975=T pbc="F F F"
C        0.28700000       1.41330000       0.20250000
C       -0.16470000      -0.04710000       0.01920000
C       -1.67740000      -0.11250000      -0.07300000
O       -2.39730000      -0.70700000       0.68670000
C        0.44160000      -0.63340000      -1.24770000
N        1.86340000      -1.01960000      -1.18870000
C        0.84000000      -2.05820000      -1.44040000
C        0.68340000      -3.08860000      -0.33970000
C        0.73870000      -2.62820000      -2.84260000
H        1.37920000       1.45600000       0.21540000
H       -0.06930000       2.04600000      -0.61890000
H       -0.09030000       1.83170000       1.14020000
H        0.13680000      -0.63690000       0.88710000
H       -2.10380000       0.46040000      -0.93300000
H        0.11450000      -0.11800000      -2.15280000
H        2.33430000      -0.76550000      -2.05400000
H        0.89770000      -2.66430000       0.64200000
H       -0.33200000      -3.49900000      -0.32830000
H        1.38050000      -3.91880000      -0.50030000
H        1.53390000      -3.36170000      -3.02050000
H       -0.21890000      -3.13900000      -2.99230000
H        0.82320000      -1.84380000      -3.60200000
