15
Properties=species:S:1:pos:R:3 gdb_132789=T pbc="F F F"
N       -0.04060000       1.43110000      -0.15620000
C       -0.00330000       0.04170000      -0.07400000
C       -1.16810000      -0.72080000      -0.00240000
F       -2.33220000      -0.04480000       0.05690000
C       -1.17130000      -2.10570000       0.02020000
C        0.04720000      -2.77570000      -0.02750000
C        1.23700000      -2.05170000      -0.09030000
C        1.21190000      -0.66140000      -0.11130000
O        2.33900000       0.11690000      -0.16070000
H        0.80460000       1.87670000       0.17020000
H       -0.87680000       1.83820000       0.23640000
H       -2.11740000      -2.62980000       0.07570000
H        0.07290000      -3.85880000      -0.01350000
H        2.19310000      -2.56700000      -0.12240000
H        3.11450000      -0.45230000      -0.15180000
