16
Properties=species:S:1:pos:R:3 gdb_57835=T pbc="F F F"
C       -0.14940000       1.17010000      -0.59510000
N       -0.42840000      -0.22240000      -0.26840000
C        0.66240000      -1.13880000      -0.58620000
C       -1.22910000      -0.44500000       0.82680000
N       -1.64440000       0.49860000       1.58410000
C       -1.77050000      -1.85280000       1.03680000
O       -2.14280000      -2.24830000       2.11280000
C       -1.96180000      -2.69850000      -0.15740000
N       -2.13990000      -3.37540000      -1.07810000
H        0.25020000       1.21470000      -1.61180000
H       -1.07010000       1.74990000      -0.53210000
H        0.57970000       1.61750000       0.09470000
H        1.59520000      -0.83150000      -0.09110000
H        0.43550000      -2.15660000      -0.26830000
H        0.83000000      -1.15380000      -1.66680000
H       -2.29590000       0.12740000       2.27580000
