18
Properties=species:S:1:pos:R:3 gdb_30803=T pbc="F F F"
C       -0.06100000       1.44550000       0.03470000
C       -0.06150000      -0.04570000      -0.01740000
N        0.02580000      -0.77390000      -1.11650000
C        0.02970000      -2.08350000      -0.70230000
N        0.04770000      -3.11570000      -1.64910000
C       -0.06550000      -2.16250000       0.66770000
C       -0.16750000      -3.28530000       1.62860000
O        0.73610000      -3.04330000       2.71310000
N       -0.13870000      -0.83580000       1.08340000
H        0.81390000       1.83580000       0.56840000
H       -0.03870000       1.83040000      -0.98560000
H       -0.95390000       1.83770000       0.53470000
H        0.36880000      -2.75710000      -2.54010000
H        0.62160000      -3.90200000      -1.37120000
H       -1.19420000      -3.38590000       2.02190000
H        0.06460000      -4.22640000       1.10700000
H        0.54420000      -3.68600000       3.40380000
H       -0.08540000      -0.54440000       2.04520000
