20
Properties=species:S:1:pos:R:3 gdb_51428=T pbc="F F F"
O       -0.32580000       0.31370000       0.52120000
C        0.18680000       0.94390000      -0.36630000
C        1.46210000       1.76100000      -0.21740000
N        1.44860000       2.87410000      -1.14990000
C        0.80010000       4.15140000      -0.65020000
C        2.13120000       4.53060000       0.05240000
C        2.68250000       3.75000000      -1.17030000
C        2.32710000       4.67110000      -2.35230000
C        0.84680000       4.98610000      -1.94350000
H       -0.23450000       0.97070000      -1.39640000
H        1.59410000       1.99820000       0.84990000
H        2.28830000       1.09070000      -0.50030000
H       -0.15000000       4.06490000      -0.12120000
H        2.38490000       5.58960000       0.16060000
H        2.28520000       4.01440000       1.00010000
H        3.65300000       3.25170000      -1.17180000
H        2.96190000       5.55990000      -2.39370000
H        2.39400000       4.14490000      -3.30610000
H        0.12510000       4.62740000      -2.67940000
H        0.66580000       6.04820000      -1.76030000
