15
Properties=species:S:1:pos:R:3 gdb_25514=T pbc="F F F"
O        2.45340000       0.08400000       0.02660000
C        2.23330000       1.22450000       0.29070000
O        1.30010000       1.95400000      -0.37720000
C        1.17710000       3.30400000      -0.07620000
C       -0.09190000       3.77850000       0.24000000
C       -0.26350000       5.13340000       0.50380000
C        0.82530000       6.00350000       0.45890000
C        2.08850000       5.51540000       0.13680000
C        2.27160000       4.16170000      -0.14090000
H        2.73070000       1.80620000       1.08680000
H       -0.92170000       3.08230000       0.27310000
H       -1.25110000       5.50890000       0.74900000
H        0.68720000       7.05850000       0.66760000
H        2.93770000       6.18840000       0.08870000
H        3.24530000       3.77960000      -0.42640000
