23
Properties=species:S:1:pos:R:3 gdb_92634=T pbc="F F F"
C       -0.04290000       1.58970000       0.06370000
C        0.01270000       0.07050000       0.00050000
C        1.08250000      -0.63200000      -0.91200000
C        1.29220000      -1.69980000       0.20880000
C        2.65450000      -2.15110000       0.72530000
C        2.48260000      -2.54880000       2.20630000
C        1.99280000      -1.37940000       3.09090000
C        0.98010000      -0.48840000       2.40690000
C        0.63520000      -0.70900000       1.14500000
H        0.94060000       2.00500000       0.30750000
H       -0.36440000       2.01330000      -0.89420000
H       -0.74870000       1.92950000       0.82950000
H       -0.98080000      -0.32930000      -0.24430000
H        0.75560000      -0.98140000      -1.89470000
H        1.96810000       0.00030000      -1.03040000
H        0.64990000      -2.57020000       0.01770000
H        3.06330000      -2.98830000       0.14830000
H        3.37030000      -1.32240000       0.64510000
H        1.75550000      -3.36940000       2.25980000
H        3.42150000      -2.94170000       2.61080000
H        1.58700000      -1.77690000       4.03090000
H        2.85040000      -0.75790000       3.39020000
H        0.60790000       0.37190000       2.95970000
