14
Properties=species:S:1:pos:R:3 gdb_20388=T pbc="F F F"
C        0.01240000       1.43810000       0.04200000
C        1.51000000       1.89820000      -0.06260000
C        2.20640000       0.57470000       0.06380000
C        1.29320000      -0.43690000      -0.05620000
N       -0.01430000      -0.03060000      -0.28490000
N        2.01570000      -1.56670000      -0.02960000
N        3.35810000      -1.25260000       0.12130000
N        3.44880000       0.04740000       0.15840000
H       -0.35380000       1.59970000       1.06320000
H       -0.64180000       1.97870000      -0.64530000
H        1.70710000       2.37480000      -1.03030000
H        1.75420000       2.62650000       0.71540000
H       -0.73790000      -0.53740000       0.20960000
H        1.74370000      -2.53410000      -0.07390000
