17
Properties=species:S:1:pos:R:3 gdb_50570=T pbc="F F F"
O       -0.27920000       0.06980000       0.00020000
C       -0.08340000       1.25180000       0.06440000
C        1.28910000       1.90910000      -0.04550000
O        2.34030000       0.96650000      -0.10410000
C        2.67400000       0.52710000      -1.42480000
C        2.50340000       1.67370000      -2.41280000
C        2.79470000       3.02540000      -1.72410000
C        1.33320000       2.83920000      -1.27030000
O        1.07910000       2.00800000      -2.43650000
H       -0.91570000       1.97860000       0.22310000
H        1.44470000       2.49990000       0.87050000
H        3.71430000       0.18840000      -1.37620000
H        2.03350000      -0.31110000      -1.72600000
H        2.90200000       1.45720000      -3.40660000
H        3.57690000       3.06640000      -0.96540000
H        2.89280000       3.83920000      -2.44270000
H        0.65470000       3.69280000      -1.19720000
