19
Properties=species:S:1:pos:R:3 gdb_112892=T pbc="F F F"
C       -0.43640000       0.93510000       0.07060000
O        0.12280000      -0.36800000      -0.01280000
C        0.89110000      -0.59580000      -1.18260000
C        1.57240000      -1.95360000      -1.08110000
C        0.54450000      -2.91870000      -1.71000000
C       -0.41170000      -3.56160000      -0.71440000
O       -0.20930000      -2.09860000      -2.64000000
C       -0.05030000      -0.77780000      -2.39080000
O       -0.61620000       0.07600000      -3.01430000
H        0.35260000       1.70170000       0.05700000
H       -1.13360000       1.13640000      -0.75000000
H       -0.96650000       0.98410000       1.02410000
H        1.57990000       0.23980000      -1.36070000
H        2.49550000      -1.94760000      -1.66710000
H        1.81450000      -2.20690000      -0.04770000
H        1.03110000      -3.68570000      -2.31830000
H       -0.87200000      -2.79660000      -0.08380000
H       -1.19660000      -4.11170000      -1.24010000
H        0.13210000      -4.26220000      -0.07260000
