18
Properties=species:S:1:pos:R:3 gdb_44207=T pbc="F F F"
O        0.23830000       0.01640000      -0.27970000
C        0.14590000       1.20790000      -0.20850000
C       -1.00390000       2.18510000       0.10880000
N        0.00290000       3.28530000       0.34280000
C        1.13120000       2.33170000      -0.11450000
C        0.65750000       3.49040000      -0.93100000
C        0.08820000       3.49730000      -2.36140000
C        1.24760000       4.46200000      -2.75060000
C        1.53480000       4.70880000      -1.24060000
H       -1.74130000       2.39890000      -0.66930000
H       -1.51350000       1.91810000       1.03820000
H        2.11640000       2.30590000       0.33910000
H        0.02400000       2.54560000      -2.89240000
H       -0.88770000       3.99180000      -2.40100000
H        2.06760000       3.93740000      -3.24580000
H        0.97730000       5.33370000      -3.34800000
H        1.07500000       5.62680000      -0.86420000
H        2.57510000       4.67410000      -0.91060000
