24
Properties=species:S:1:pos:R:3 gdb_104778=T pbc="F F F"
C        0.83810000      -0.19920000      -1.29070000
C       -0.02640000      -0.08980000      -0.02940000
C        0.62700000      -0.64150000       1.24280000
C        1.95800000       0.03000000       1.61420000
C        1.87440000       1.53960000       1.86500000
C       -0.33310000      -0.75910000       2.49730000
C       -0.09610000      -2.27020000       2.49730000
N       -0.57910000      -2.77030000       1.18580000
C        0.77740000      -2.18210000       1.29900000
H        1.15520000      -1.23380000      -1.46400000
H        0.27720000       0.12320000      -2.17350000
H        1.73990000       0.41920000      -1.23320000
H       -0.31180000       0.95710000       0.13400000
H       -0.95700000      -0.64380000      -0.18420000
H        2.35270000      -0.46420000       2.51190000
H        2.69250000      -0.16540000       0.82230000
H        1.13830000       1.77800000       2.64030000
H        2.84140000       1.93060000       2.19650000
H        1.59050000       2.08740000       0.96130000
H        0.06830000      -0.25510000       3.37960000
H       -1.37200000      -0.45510000       2.34420000
H       -0.04140000      -2.93480000       3.35100000
H       -0.46330000      -3.78360000       1.19100000
H        1.65560000      -2.76020000       1.03260000
