10
Properties=species:S:1:pos:R:3 gdb_132405=T pbc="F F F"
F        0.02870000       0.06680000       0.00290000
C       -0.01750000       1.38220000       0.01070000
C       -1.25170000       2.01670000       0.03130000
C       -1.16200000       3.40180000       0.03760000
F       -2.26660000       4.11720000       0.05690000
N       -0.02930000       4.07870000       0.02540000
C        1.05460000       3.32410000       0.00610000
F        2.19600000       3.97100000      -0.00610000
N        1.14510000       2.00630000      -0.00220000
H       -2.19080000       1.48440000       0.04150000
