15
Properties=species:S:1:pos:R:3 gdb_31376=T pbc="F F F"
C       -0.05090000       1.38650000      -0.04640000
O        0.02190000      -0.04640000       0.02980000
C        0.65600000      -0.53900000       1.09420000
N        1.18030000       0.17310000       2.01130000
C        1.82030000      -0.48290000       3.08140000
N        2.35010000       0.21630000       4.00520000
N        1.86110000      -1.90910000       3.10220000
C        1.30840000      -2.53610000       2.13950000
N        0.67610000      -1.91790000       1.08300000
H        0.95180000       1.81770000      -0.07990000
H       -0.59640000       1.59640000      -0.96610000
H       -0.57850000       1.78790000       0.82120000
H        2.76270000      -0.42280000       4.68590000
H        1.31070000      -3.62400000       2.10680000
H        0.24420000      -2.42780000       0.32980000
