17
Properties=species:S:1:pos:R:3 gdb_8163=T pbc="F F F"
C       -0.02720000       1.55300000       0.02870000
C        0.03020000       0.04850000       0.03070000
C        0.93480000      -0.81460000      -0.93150000
C        0.56730000      -1.90530000       0.09520000
C        0.65110000      -0.82270000       1.19040000
O       -0.87390000      -2.03950000      -0.09800000
C       -1.26440000      -0.71730000      -0.14520000
N       -2.43170000      -0.27110000      -0.29960000
H        0.96810000       1.98720000       0.16390000
H       -0.44230000       1.91980000      -0.91470000
H       -0.67670000       1.91320000       0.83210000
H        0.60260000      -0.96120000      -1.96160000
H        1.98370000      -0.51420000      -0.89230000
H        1.01760000      -2.89330000       0.15160000
H        1.67310000      -0.52300000       1.43030000
H        0.06020000      -0.97660000       2.09590000
H       -3.10390000      -1.03520000      -0.39230000
