16
Properties=species:S:1:pos:R:3 gdb_82678=T pbc="F F F"
C        0.04380000       1.59790000      -0.06020000
C        0.06830000       0.08180000       0.01500000
C        1.12360000      -0.70910000      -0.81190000
O        2.39850000      -0.12720000      -0.40350000
C        2.21230000      -0.78550000       0.83410000
C        1.22370000      -1.77150000       0.34320000
C        0.70380000      -0.62500000       1.22660000
C        0.24500000      -0.67750000       2.56950000
N       -0.12910000      -0.71260000       3.66530000
H        1.05320000       2.00430000       0.03450000
H       -0.37560000       1.93210000      -1.01510000
H       -0.57620000       2.01370000       0.74040000
H       -0.91940000      -0.35510000      -0.16280000
H        1.04270000      -0.87530000      -1.88280000
H        3.01540000      -0.82920000       1.55680000
H        1.10610000      -2.84220000       0.42580000
