14
Properties=species:S:1:pos:R:3 gdb_5195=T pbc="F F F"
O       -0.28780000       0.03370000       0.00070000
C       -0.08350000       1.23020000       0.00770000
N        1.14210000       1.82250000       0.00080000
C        2.37970000       1.16050000      -0.01500000
C        2.60490000      -0.20050000      -0.02830000
N        3.96860000      -0.37470000      -0.04100000
C        4.60600000       0.83470000      -0.03630000
C        3.64400000       1.81760000      -0.02020000
H       -0.89530000       1.98370000       0.02080000
H        1.16580000       2.82990000       0.00800000
H        1.91190000      -1.02060000      -0.02920000
H        4.42530000      -1.26900000      -0.05210000
H        5.68140000       0.90230000      -0.04470000
H        3.81930000       2.88280000      -0.01290000
