16
Properties=species:S:1:pos:R:3 gdb_55967=T pbc="F F F"
C        0.04660000       1.37940000      -0.31900000
C        0.03600000      -0.11910000      -0.38610000
N        0.95910000      -0.79120000      -0.92330000
O       -1.11770000      -0.59400000       0.21110000
C       -1.17850000      -1.95940000       0.52700000
C       -2.52970000      -2.39370000       1.11250000
O       -2.69990000      -3.36210000       0.02510000
C       -1.54380000      -2.96570000      -0.59110000
O       -1.07940000      -3.34970000      -1.61460000
H        0.93580000       1.75850000      -0.81990000
H       -0.84900000       1.78200000      -0.80260000
H        0.03270000       1.71700000       0.72200000
H        0.77840000      -1.79360000      -0.95970000
H       -0.29750000      -2.27520000       1.09840000
H       -2.51250000      -2.89600000       2.08020000
H       -3.29820000      -1.62080000       1.07440000
