18
Properties=species:S:1:pos:R:3 gdb_63793=T pbc="F F F"
C        0.39370000       1.47770000       0.07260000
C        0.09330000      -0.00880000       0.00360000
O       -1.29490000      -0.26850000      -0.13710000
C        0.96080000      -0.88880000      -0.96810000
C        1.35770000      -1.81850000       0.22150000
C        0.56440000      -0.89860000       1.18470000
O        1.81430000      -0.44520000       1.78380000
C        2.55600000      -1.30780000       0.98460000
N        3.78840000      -1.53060000       0.96020000
H        1.44470000       1.65750000       0.30960000
H        0.17550000       1.95450000      -0.89090000
H       -0.22450000       1.95310000       0.84000000
H       -1.59010000       0.12650000      -0.96500000
H        0.33940000      -1.39270000      -1.71050000
H        1.79770000      -0.39530000      -1.46640000
H        1.23220000      -2.89280000       0.11710000
H       -0.17120000      -1.20260000       1.92770000
H        4.28450000      -0.96210000       1.64900000
