16
Properties=species:S:1:pos:R:3 gdb_51271=T pbc="F F F"
N       -0.01960000       1.32480000       0.12370000
C        0.01060000       0.05940000       0.04570000
C       -1.19420000      -0.87710000      -0.00580000
N       -0.66090000      -2.24070000      -0.10610000
C        0.61300000      -2.13080000      -0.10650000
C        1.56970000      -3.27920000      -0.20350000
C        0.87150000      -4.63320000      -0.19470000
O        1.22040000      -5.55280000      -0.88570000
N        1.09170000      -0.82520000      -0.01210000
H        0.91620000       1.73300000       0.14520000
H       -1.81460000      -0.76870000       0.89020000
H       -1.83330000      -0.64880000      -0.86510000
H        2.18910000      -3.20810000      -1.10400000
H        2.25660000      -3.25230000       0.65660000
H        0.03000000      -4.71620000       0.51950000
H        2.06020000      -0.55230000      -0.02780000
