14
Properties=species:S:1:pos:R:3 gdb_5336=T pbc="F F F"
O       -0.09890000       1.36920000       0.03270000
C        0.08650000       0.03580000      -0.07480000
C       -0.03860000      -0.71130000      -1.23350000
N        0.13880000      -2.00630000      -0.76880000
C        0.66920000      -3.37890000      -0.92810000
C        0.90720000      -3.37490000       0.63330000
C        0.42750000      -1.93890000       0.54370000
N        0.40960000      -0.71850000       1.03500000
H        0.06140000       1.58640000       0.95910000
H       -0.32720000      -0.44420000      -2.23360000
H       -0.05990000      -4.09330000      -1.31830000
H        1.58950000      -3.42290000      -1.51640000
H        0.28350000      -4.06690000       1.20430000
H        1.95190000      -3.50570000       0.92500000
