19
Properties=species:S:1:pos:R:3 gdb_37199=T pbc="F F F"
C       -0.04190000       1.54380000      -0.03670000
C        1.53200000       1.56630000      -0.05110000
C        1.54310000       0.00750000      -0.01980000
C        1.57430000      -0.77200000       1.32290000
C        0.00780000      -0.79420000       1.33730000
C       -0.00790000      -0.01460000      -0.00560000
C        0.02120000      -0.84410000      -1.29640000
O        0.74810000      -0.08660000      -2.26810000
C        1.51400000      -0.82280000      -1.31010000
H       -0.50570000       2.00230000       0.84100000
H       -0.49860000       1.96290000      -0.93500000
H        1.96000000       1.99800000      -0.95750000
H        1.99850000       2.03800000       0.81810000
H        2.05500000      -1.75300000       1.27530000
H        2.02980000      -0.21680000       2.14680000
H       -0.44570000      -1.78860000       1.29840000
H       -0.44810000      -0.25200000       2.16950000
H       -0.68730000      -1.57090000      -1.68410000
H        2.23580000      -1.52910000      -1.71090000
