13
Properties=species:S:1:pos:R:3 gdb_132385=T pbc="F F F"
N        0.04850000       1.36020000       0.16820000
C       -0.01620000       0.00510000       0.05680000
C       -1.23390000      -0.68440000       0.00200000
C       -1.13890000      -2.06550000      -0.07080000
O       -2.25570000      -2.80460000      -0.12700000
N        0.02480000      -2.72660000      -0.09000000
C        1.08900000      -1.94770000      -0.03440000
F        2.24700000      -2.58360000      -0.05560000
N        1.16920000      -0.63900000       0.03480000
H        0.95150000       1.77980000       0.01880000
H       -0.76170000       1.91530000      -0.04550000
H       -2.19350000      -0.18660000       0.02020000
H       -1.96670000      -3.72730000      -0.17170000
