16
Properties=species:S:1:pos:R:3 gdb_38808=T pbc="F F F"
C       -0.05190000       1.58230000       0.04800000
C        1.47880000       1.37700000      -0.00540000
O        1.74270000       0.73380000       1.26470000
C        0.78330000      -0.31260000       1.26130000
O        1.44760000      -1.57460000       1.14000000
C        2.17100000      -1.69060000      -0.00530000
N        2.16020000      -0.91960000      -1.00980000
C        1.21070000       0.16570000      -0.94990000
C       -0.02840000       0.03170000       0.00290000
H       -0.44090000       2.07540000       0.94090000
H       -0.47520000       2.01890000      -0.85850000
H        2.21450000       2.15800000      -0.18350000
H        0.24930000      -0.35990000       2.21090000
H        2.79600000      -2.57990000       0.02450000
H        0.93020000       0.48400000      -1.95480000
H       -0.89050000      -0.59250000      -0.22080000
