16
Properties=species:S:1:pos:R:3 gdb_66032=T pbc="F F F"
C       -0.25870000       1.58600000       0.01400000
C       -0.01650000       0.08500000       0.03470000
O        1.11550000      -0.29720000      -0.77500000
C        1.83200000      -0.84930000       0.34830000
C        0.66090000      -0.54090000       1.31960000
C        0.92290000       0.32890000       2.44280000
C        1.15500000       1.05130000       3.37530000
C       -1.22410000      -0.64990000      -0.37740000
N       -2.17410000      -1.23320000      -0.68170000
H        0.63540000       2.10720000       0.36090000
H       -0.48730000       1.90300000      -1.00680000
H       -1.09770000       1.85090000       0.66320000
H        2.05370000      -1.91230000       0.21230000
H        2.75500000      -0.29910000       0.55370000
H        0.13940000      -1.44210000       1.64810000
H        1.35530000       1.68400000       4.20490000
