22
Properties=species:S:1:pos:R:3 gdb_117167=T pbc="F F F"
C       -0.49660000       1.20290000      -0.24440000
C        0.48120000       0.09250000       0.14370000
N        1.07970000      -0.56440000      -1.01080000
C        0.79660000      -1.83700000      -1.37590000
O        0.04140000      -2.57280000      -0.75280000
C        1.47550000      -2.35750000      -2.65500000
O        1.29010000      -3.74770000      -2.71300000
C        0.90300000      -1.66990000      -3.91090000
C        1.53360000      -2.20720000      -5.19680000
H       -0.00240000       1.98270000      -0.83430000
H       -1.32440000       0.80150000      -0.83580000
H       -0.91040000       1.67470000       0.65230000
H        1.27990000       0.49430000       0.77860000
H       -0.02800000      -0.69210000       0.70660000
H        1.71390000      -0.03450000      -1.58740000
H        2.55510000      -2.14100000      -2.59470000
H        0.64230000      -3.93260000      -2.01030000
H       -0.18070000      -1.83870000      -3.92380000
H        1.05480000      -0.58500000      -3.83850000
H        2.60960000      -2.00070000      -5.22650000
H        1.39740000      -3.28930000      -5.25870000
H        1.07950000      -1.74780000      -6.07990000
