14
Properties=species:S:1:pos:R:3 gdb_127684=T pbc="F F F"
C       -0.35570000       1.37910000      -0.02760000
N        0.00490000      -0.03020000      -0.01480000
N        0.07510000      -0.65940000      -1.21880000
C        0.38800000      -1.89010000      -1.23440000
O        0.66930000      -2.67200000      -0.14640000
C        0.62240000      -2.11920000       1.10590000
O        0.86550000      -2.78900000       2.06470000
C        0.25560000      -0.65800000       1.18760000
N        0.17810000      -0.02830000       2.29410000
H        0.44070000       1.97660000       0.42520000
H       -0.50740000       1.66690000      -1.06630000
H       -1.26780000       1.54060000       0.55400000
H        0.45720000      -2.43500000      -2.16430000
H        0.39950000      -0.67190000       3.05410000
