14
Properties=species:S:1:pos:R:3 gdb_28992=T pbc="F F F"
O        0.07510000       1.33240000      -0.02240000
C        0.05090000      -0.01110000      -0.00740000
C        0.03510000      -0.71020000      -1.21170000
C        0.01010000      -2.09670000      -1.16850000
N        0.00010000      -2.82090000      -0.04050000
C        0.01540000      -2.14540000       1.10370000
C        0.04090000      -0.74620000       1.19670000
C        0.05680000      -0.05030000       2.43460000
C        0.07130000       0.60280000       3.44880000
H        0.08330000       1.64810000       0.89400000
H        0.04230000      -0.16970000      -2.15030000
H       -0.00260000      -2.66220000      -2.09700000
H        0.00730000      -2.73000000       2.02000000
H        0.08350000       1.14860000       4.36010000
