21
Properties=species:S:1:pos:R:3 gdb_109244=T pbc="F F F"
C       -0.04650000       1.58940000       0.08610000
C        0.03150000       0.05420000      -0.01360000
C        0.73920000      -0.44680000      -1.24140000
C        1.99140000      -0.91500000      -1.30560000
C        2.39600000      -1.34630000      -2.69870000
C        1.11420000      -1.14230000      -3.49400000
O        0.01110000      -1.93400000      -3.04360000
C        0.09680000      -0.54880000      -2.60700000
C       -1.03190000       0.33650000      -3.05770000
H        0.95630000       2.02760000       0.08250000
H       -0.60360000       2.02400000      -0.74860000
H       -0.54700000       1.89000000       1.01190000
H        0.55220000      -0.32910000       0.87110000
H       -0.98420000      -0.36080000       0.02250000
H        2.64830000      -1.03240000      -0.44960000
H        3.21430000      -0.73520000      -3.10240000
H        2.73230000      -2.39000000      -2.73130000
H        1.14640000      -0.95710000      -4.56520000
H       -1.90230000       0.23350000      -2.40040000
H       -0.73310000       1.38970000      -3.05810000
H       -1.34010000       0.05990000      -4.06880000
