17
Properties=species:S:1:pos:R:3 gdb_33728=T pbc="F F F"
C        0.00460000      -1.18970000      -0.04350000
C        0.02490000       0.01290000      -0.02350000
C        0.04350000       1.45110000       0.00840000
C       -0.27360000       2.28400000       1.31650000
C        0.45230000       3.41540000       0.51170000
C        1.36190000       2.29050000      -0.04870000
C       -0.57480000       3.61140000      -0.62530000
O       -0.19010000       3.08800000      -1.90910000
C       -0.86890000       2.22790000      -0.98850000
H       -0.00830000      -2.25120000      -0.06430000
H       -1.32790000       2.42750000       1.56990000
H        0.28600000       1.93050000       2.18540000
H        0.85890000       4.30150000       0.99560000
H        2.08080000       1.93880000       0.69180000
H        1.82550000       2.43160000      -1.02230000
H       -1.28930000       4.42720000      -0.63160000
H       -1.82650000       1.82740000      -1.30160000
