20
Properties=species:S:1:pos:R:3 gdb_88573=T pbc="F F F"
C       -0.20030000       1.49890000      -0.21810000
C       -0.02590000       0.01940000       0.01690000
N        1.31550000      -0.55410000      -0.12340000
C        0.67070000      -0.57870000       1.20550000
C        1.32060000       0.19230000       2.28770000
C        0.98380000       0.22480000       3.57640000
C        1.94480000       1.08500000       4.34390000
O        2.87280000       1.56180000       3.37490000
C        2.56690000       1.02390000       2.09240000
H        0.65350000       2.06780000       0.15340000
H       -0.30260000       1.70660000      -1.28870000
H       -1.10260000       1.86410000       0.28390000
H       -0.85260000      -0.58600000      -0.35590000
H        1.28240000      -1.47140000      -0.55840000
H        0.24720000      -1.52590000       1.53660000
H        0.15520000      -0.29650000       4.04020000
H        1.45330000       1.93750000       4.84040000
H        2.47450000       0.52100000       5.13010000
H        3.40120000       0.41040000       1.71950000
H        2.43520000       1.84400000       1.37250000
