23
Properties=species:S:1:pos:R:3 gdb_91180=T pbc="F F F"
C        0.51290000       1.54550000      -0.18030000
C        0.08340000       0.10880000       0.09370000
C        0.64590000      -0.96480000      -0.88700000
C        1.41210000      -1.64030000       0.28850000
C        2.87230000      -1.30430000       0.39960000
C        3.11940000      -0.40190000       1.34970000
C        1.87190000       0.03600000       2.08070000
C        0.72320000      -0.66750000       1.31310000
C       -0.31720000      -1.29060000       2.23510000
H        1.60120000       1.63590000      -0.25700000
H        0.08740000       1.89000000      -1.12980000
H        0.16840000       2.23180000       0.60120000
H       -1.01010000       0.07850000       0.15210000
H       -0.12190000      -1.59870000      -1.33850000
H        1.28090000      -0.57340000      -1.68740000
H        1.21490000      -2.71170000       0.40980000
H        3.62420000      -1.75550000      -0.24060000
H        4.10290000      -0.01830000       1.60190000
H        1.90080000      -0.27700000       3.13450000
H        1.76230000       1.12690000       2.09850000
H       -0.83760000      -0.52280000       2.82090000
H       -1.07540000      -1.84240000       1.66810000
H        0.14650000      -1.99010000       2.94030000
