15
Properties=species:S:1:pos:R:3 gdb_22025=T pbc="F F F"
N        0.06020000       1.29620000      -0.01340000
C        0.02720000      -0.06910000       0.02050000
N       -1.12800000      -0.66780000       0.09390000
N       -1.10240000      -2.02780000       0.19130000
C        0.02370000      -2.77410000       0.20470000
C        1.24940000      -2.19540000       0.10830000
C        1.32430000      -0.76530000      -0.00280000
N        2.37380000      -0.01340000      -0.12920000
O        3.54670000      -0.79920000      -0.16270000
H        0.92690000       1.68990000      -0.34640000
H       -0.79680000       1.76390000      -0.26020000
H       -2.01400000      -2.44420000       0.25820000
H       -0.12690000      -3.84380000       0.29360000
H        2.15130000      -2.78700000       0.11330000
H        4.23430000      -0.13000000      -0.23230000
