16
Properties=species:S:1:pos:R:3 gdb_62488=T pbc="F F F"
C        0.07390000       1.53390000       0.06480000
C       -0.10450000       0.00370000      -0.02580000
O       -1.46020000      -0.35100000      -0.09360000
C        0.69450000      -0.55900000      -1.18620000
N        0.25510000      -0.57800000      -2.36650000
O        1.90310000      -1.03410000      -0.77100000
C        1.96450000      -1.11730000       0.66050000
C        0.60340000      -0.63970000       1.17500000
O        0.20140000      -0.74150000       2.29830000
H        1.12570000       1.82600000       0.15480000
H       -0.33540000       1.98850000      -0.84110000
H       -0.47290000       1.89710000       0.93810000
H       -1.65890000      -0.44390000      -1.03670000
H        0.90400000      -1.02200000      -3.01650000
H        2.15850000      -2.15120000       0.96080000
H        2.77530000      -0.48270000       1.03490000
