21
Properties=species:S:1:pos:R:3 gdb_84040=T pbc="F F F"
O       -0.01560000       1.49930000       0.22110000
C       -0.00560000       0.10890000       0.07000000
C       -0.43400000      -0.69710000       1.26570000
C       -0.87250000      -0.03180000       2.55970000
C       -2.22140000      -0.54040000       3.08720000
O       -3.34490000       0.01790000       2.42870000
C       -3.61880000      -0.46140000       1.12630000
C       -2.65410000       0.06480000       0.05240000
C       -1.31590000      -0.65260000       0.02650000
H       -0.27120000       1.89050000      -0.62090000
H        0.82390000      -0.26980000      -0.52730000
H        0.10600000      -1.62960000       1.40740000
H       -0.10800000      -0.20900000       3.32680000
H       -0.93970000       1.05170000       2.42970000
H       -2.25980000      -1.64220000       3.03990000
H       -2.33600000      -0.24970000       4.13720000
H       -3.63050000      -1.56470000       1.11700000
H       -4.63510000      -0.11720000       0.90420000
H       -3.13600000      -0.03690000      -0.92890000
H       -2.51300000       1.13660000       0.22720000
H       -1.30660000      -1.55700000      -0.57710000
