19
Properties=species:S:1:pos:R:3 gdb_107810=T pbc="F F F"
C       -0.01090000       1.50580000       0.22200000
C       -0.01390000      -0.00660000      -0.02890000
C       -1.39880000      -0.58540000      -0.17060000
O       -2.20180000      -0.38490000       1.09460000
C       -2.59690000      -1.72720000       1.02230000
C       -3.10520000      -2.13310000      -0.42130000
C       -3.34470000      -1.00580000      -1.34900000
C       -2.33400000      -0.12790000      -1.26510000
C       -1.64330000      -2.12470000      -0.03920000
H        1.00810000       1.86780000       0.38590000
H       -0.42660000       2.05800000      -0.62660000
H       -0.60680000       1.74680000       1.10630000
H        0.54820000      -0.24620000      -0.94090000
H        0.48970000      -0.51870000       0.79900000
H       -2.97670000      -2.19890000       1.92060000
H       -3.64110000      -3.07230000      -0.48710000
H       -4.25490000      -0.88100000      -1.92280000
H       -2.27850000       0.84260000      -1.73990000
H       -0.93080000      -2.93330000      -0.14820000
