16
Properties=species:S:1:pos:R:3 gdb_18130=T pbc="F F F"
C        0.23210000       1.39260000       0.22420000
O        1.16060000       1.91860000      -0.69780000
C        2.01290000       0.84120000      -1.05770000
C        3.29270000       0.70830000      -0.20400000
O        3.41370000      -0.67370000       0.09810000
C        2.10000000      -1.16050000       0.32860000
C        1.19800000      -0.43570000      -0.69380000
O       -0.02380000       0.06260000      -0.16890000
H        0.63980000       1.42490000       1.25050000
H       -0.69520000       1.96960000       0.17240000
H        2.23300000       0.93410000      -2.12250000
H        4.20260000       1.01830000      -0.72220000
H        3.18320000       1.31720000       0.70790000
H        2.11960000      -2.24570000       0.20790000
H        1.75120000      -0.92680000       1.34730000
H        0.95790000      -1.06410000      -1.55310000
