19
Properties=species:S:1:pos:R:3 gdb_16774=T pbc="F F F"
O        0.25520000       1.12700000       0.65080000
C        0.01020000      -0.24500000       0.38600000
C       -1.43230000      -0.51650000      -0.06380000
C       -1.73770000      -2.02410000      -0.27960000
C       -2.67060000      -2.41230000       0.85860000
C       -2.24510000      -2.12390000       2.25140000
N       -3.16950000      -1.21480000       1.55970000
C       -2.51550000      -0.04220000       0.94920000
H        0.10210000       1.61650000      -0.16420000
H        0.70800000      -0.63560000      -0.37260000
H        0.23830000      -0.76430000       1.32230000
H       -1.56500000       0.02190000      -1.01090000
H       -2.24350000      -2.18530000      -1.23650000
H       -0.82510000      -2.63100000      -0.29810000
H       -3.39550000      -3.20060000       0.67340000
H       -2.68650000      -2.67270000       3.07910000
H       -1.22270000      -1.80120000       2.42790000
H       -2.09080000       0.60970000       1.71860000
H       -3.29570000       0.52730000       0.43380000
