16
Properties=species:S:1:pos:R:3 gdb_131863=T pbc="F F F"
O        0.01560000       1.36570000      -0.28630000
C       -0.02450000      -0.02200000       0.02620000
C       -1.48890000      -0.41650000       0.11730000
N       -2.14370000      -0.11990000      -1.14500000
C       -3.42140000      -0.51780000      -1.37420000
N       -4.05800000      -1.40730000      -0.63820000
O       -5.30170000      -1.52630000      -1.30730000
C       -5.24880000      -0.68780000      -2.33460000
N       -4.14200000      -0.03010000      -2.45280000
H        0.92070000       1.60650000      -0.50270000
H        0.46800000      -0.61790000      -0.75570000
H        0.46900000      -0.23410000       0.98580000
H       -1.57350000      -1.48820000       0.32030000
H       -1.96350000       0.11490000       0.95560000
H       -1.89030000       0.76650000      -1.55650000
H       -6.12150000      -0.63150000      -2.96960000
