18
Properties=species:S:1:pos:R:3 gdb_47742=T pbc="F F F"
O        0.02490000      -0.05170000       0.05570000
C        0.00930000       1.16730000       0.01530000
N       -1.15050000       1.88770000       0.02790000
C       -1.24270000       3.33800000      -0.03040000
C        0.07650000       3.93280000       0.44830000
O        1.14640000       3.35440000      -0.27840000
C        1.27380000       1.98340000      -0.00520000
C        2.37280000       1.54550000       0.95150000
C        2.51650000       1.33270000      -0.53130000
H       -1.99170000       1.33060000      -0.00130000
H       -1.44950000       3.68130000      -1.05360000
H       -2.06330000       3.68030000       0.61100000
H        0.10460000       5.00830000       0.25760000
H        0.20330000       3.76050000       1.52790000
H        2.94740000       2.34570000       1.40390000
H        2.17320000       0.68190000       1.57440000
H        2.40500000       0.32580000      -0.91420000
H        3.19170000       1.98470000      -1.07300000
