21
Properties=species:S:1:pos:R:3 gdb_40337=T pbc="F F F"
C       -0.07210000       1.48240000      -0.15660000
C        1.29940000       0.86310000      -0.04660000
C        0.06860000      -0.01180000       0.02580000
C       -0.32800000      -0.66590000       1.28760000
C       -0.15760000      -2.07250000       1.82060000
C        0.46500000      -1.56900000       3.11920000
C       -0.25150000      -0.22440000       2.81810000
C       -1.76220000      -0.56350000       2.94050000
C       -1.55940000      -1.43960000       1.70810000
H       -0.43250000       2.06220000       0.68650000
H       -0.39610000       1.85420000      -1.12250000
H        1.91630000       0.81020000      -0.93690000
H        1.85530000       1.02920000       0.87010000
H       -0.13250000      -0.61400000      -0.85720000
H        0.09260000      -2.96280000       1.25670000
H        0.21440000      -2.06990000       4.06240000
H        1.55120000      -1.47980000       3.02880000
H        0.14180000       0.71510000       3.20280000
H       -2.09740000      -1.02610000       3.87690000
H       -2.39240000       0.30070000       2.71240000
H       -2.31210000      -1.87710000       1.06370000
