20
Properties=species:S:1:pos:R:3 gdb_30818=T pbc="F F F"
C        0.17920000       1.56710000      -0.22120000
C       -0.02240000       0.06000000       0.03100000
C        0.63780000      -0.46000000       1.26510000
C        0.10330000      -0.81210000       2.48770000
N       -1.27800000      -0.77670000       2.81350000
C        1.16770000      -1.28430000       3.31620000
C        2.32970000      -1.19530000       2.57980000
N        3.68430000      -1.46240000       2.87930000
N        2.00390000      -0.68840000       1.35140000
H        1.24110000       1.81370000      -0.32930000
H       -0.33270000       1.88690000      -1.13520000
H       -0.20930000       2.15920000       0.61350000
H       -1.09330000      -0.15580000       0.11610000
H        0.33100000      -0.49760000      -0.84810000
H       -1.65280000       0.16490000       2.79030000
H       -1.43910000      -1.14350000       3.74330000
H        1.08220000      -1.66500000       4.32390000
H        3.83160000      -1.46340000       3.88140000
H        3.98300000      -2.36930000       2.52960000
H        2.68720000      -0.43460000       0.65910000
