23
Properties=species:S:1:pos:R:3 gdb_122657=T pbc="F F F"
C        0.08610000       1.41360000      -0.10140000
O        0.05530000       0.00890000      -0.06010000
C       -1.25490000      -0.51060000       0.02010000
C       -1.17080000      -2.03080000       0.06740000
C       -2.53960000      -2.72740000       0.10310000
C       -2.43860000      -4.27310000      -0.02260000
C       -3.56760000      -4.84940000       0.86740000
C       -3.87340000      -3.70270000       1.80210000
C       -3.32510000      -2.56140000       1.39010000
H        1.13390000       1.71830000      -0.16210000
H       -0.45000000       1.81080000      -0.97880000
H       -0.36150000       1.86120000       0.80090000
H       -1.76490000      -0.11480000       0.91540000
H       -1.84900000      -0.18740000      -0.85370000
H       -0.61440000      -2.36580000      -0.81650000
H       -0.58110000      -2.32810000       0.94300000
H       -3.13920000      -2.32710000      -0.73110000
H       -2.49360000      -4.61360000      -1.05990000
H       -1.46780000      -4.59400000       0.37190000
H       -4.45790000      -5.11460000       0.27910000
H       -3.26590000      -5.76320000       1.39170000
H       -4.50350000      -3.81340000       2.67820000
H       -3.44540000      -1.60230000       1.88250000
