19
Properties=species:S:1:pos:R:3 gdb_7687=T pbc="F F F"
C       -0.09000000       1.56610000       0.04720000
C        0.02310000       0.05630000      -0.06410000
C       -1.10310000      -0.67990000       0.64220000
C        0.58130000      -0.66040000      -1.23800000
C        1.75490000       0.03080000      -1.90950000
O        1.42830000       1.18290000      -2.66030000
C        2.39900000       0.14990000      -0.49860000
N        1.30160000      -0.67170000       0.12120000
H        0.57580000       2.10060000      -0.62750000
H       -1.11260000       1.86910000      -0.20010000
H        0.10550000       1.88330000       1.07880000
H       -2.06720000      -0.45730000       0.17240000
H       -0.93880000      -1.75990000       0.61640000
H       -1.15780000      -0.37290000       1.69210000
H        0.10140000      -1.55160000      -1.63260000
H        2.31490000      -0.68390000      -2.52570000
H        2.22060000       1.47680000      -3.12120000
H        3.35230000      -0.37420000      -0.40130000
H        2.50100000       1.15940000      -0.09190000
