14
Properties=species:S:1:pos:R:3 gdb_5337=T pbc="F F F"
C        0.01840000      -1.21020000      -0.00410000
C        0.00200000      -0.00590000       0.00300000
C       -0.01730000       1.41900000       0.01090000
C       -1.23650000       2.11560000       0.03080000
C       -1.25120000       3.50500000       0.03850000
C       -0.05520000       4.22050000       0.02660000
C        1.15970000       3.53780000       0.00680000
C        1.18260000       2.14850000      -0.00100000
H        0.03320000      -2.27170000      -0.01060000
H       -2.16400000       1.55470000       0.04010000
H       -2.19990000       4.03110000       0.05390000
H       -0.06990000       5.30520000       0.03260000
H        2.09380000       4.08950000      -0.00260000
H        2.12500000       1.61310000      -0.01640000
