19
Properties=species:S:1:pos:R:3 gdb_12099=T pbc="F F F"
C       -0.22790000       1.44580000      -0.14150000
N        0.00570000       0.01490000       0.03460000
C        1.36970000      -0.46640000      -0.16790000
C        0.76990000      -0.45810000       1.19330000
C        1.29260000       0.45050000       2.27670000
C        0.27950000       0.88740000       3.31330000
C        2.71730000       0.36380000       2.64270000
O        2.22510000       1.46330000       1.87120000
H        0.59680000       2.08710000       0.19540000
H       -0.40150000       1.63460000      -1.20580000
H       -1.13760000       1.73060000       0.39780000
H        1.47190000      -1.39580000      -0.72270000
H        2.14350000       0.27610000      -0.35320000
H        0.38340000      -1.39460000       1.59710000
H       -0.16870000       0.01680000       3.80390000
H        0.75130000       1.51330000       4.07480000
H       -0.52890000       1.46040000       2.84900000
H        3.02860000       0.61270000       3.65630000
H        3.36920000      -0.32500000       2.10810000
