17
Properties=species:S:1:pos:R:3 gdb_24109=T pbc="F F F"
N       -0.02140000      -1.15290000      -0.00330000
C       -0.03580000       0.00250000       0.00340000
C       -0.01250000       1.46200000       0.01140000
C        1.43400000       2.01620000      -0.00230000
N        1.45830000       3.46000000       0.00570000
C        1.39310000       4.26550000      -1.10900000
C        1.32500000       5.57310000      -0.69200000
C        1.34240000       5.56490000       0.73080000
C        1.42040000       4.25260000       1.13090000
H       -0.55810000       1.83730000      -0.86050000
H       -0.53740000       1.82730000       0.90010000
H        1.97760000       1.64480000       0.87030000
H        1.95690000       1.65490000      -0.89170000
H        1.41250000       3.83360000      -2.09750000
H        1.28480000       6.43920000      -1.33450000
H        1.31800000       6.42350000       1.38400000
H        1.46380000       3.80920000       2.11350000
