17
Properties=species:S:1:pos:R:3 gdb_33662=T pbc="F F F"
C       -0.03090000      -1.19770000       0.03470000
C       -0.02060000       0.00650000       0.01010000
C        0.00700000       1.42110000      -0.00900000
C       -0.73610000       2.49950000       0.82620000
C        0.57330000       3.24550000       1.07070000
C        1.24210000       2.38330000      -0.04680000
C        1.08510000       3.06740000      -1.40070000
O       -0.33130000       3.27100000      -1.53510000
C       -0.96090000       2.36730000      -0.66100000
H       -0.04380000      -2.25890000       0.05340000
H       -1.53510000       2.33890000       1.54110000
H        0.56780000       4.32970000       0.91650000
H        0.98660000       3.01920000       2.05580000
H        2.22640000       1.96600000       0.15610000
H        1.57590000       4.04450000      -1.45210000
H        1.45580000       2.43610000      -2.22180000
H       -1.92030000       2.01110000      -1.01540000
