25
Properties=species:S:1:pos:R:3 gdb_121848=T pbc="F F F"
C        0.16460000       1.34230000       0.00750000
O        0.05690000      -0.05910000       0.00110000
C       -1.28440000      -0.50690000       0.01150000
C       -1.26110000      -2.03170000       0.00310000
C       -2.63720000      -2.73720000       0.01260000
C       -3.43570000      -2.39380000       1.28480000
C       -3.46010000      -2.38000000      -1.24020000
C       -2.34870000      -4.25040000       0.00160000
O       -3.57630000      -4.96590000       0.00950000
H        1.22890000       1.59060000      -0.00140000
H       -0.31240000       1.79560000      -0.87680000
H       -0.29530000       1.78610000       0.90550000
H       -1.80240000      -0.12170000       0.90500000
H       -1.81940000      -0.11220000      -0.86770000
H       -0.69620000      -2.34820000      -0.88290000
H       -0.67940000      -2.35760000       0.87470000
H       -3.74420000      -1.34420000       1.29790000
H       -4.33480000      -3.01140000       1.34440000
H       -2.83890000      -2.57950000       2.18540000
H       -2.88080000      -2.55580000      -2.15410000
H       -4.36020000      -2.99720000      -1.28910000
H       -3.76880000      -1.33040000      -1.23580000
H       -1.75710000      -4.49920000      -0.89430000
H       -1.74000000      -4.50890000       0.88310000
H       -3.37680000      -5.90590000       0.00220000
