16
Properties=species:S:1:pos:R:3 gdb_29609=T pbc="F F F"
N        0.23620000       1.41380000      -0.07390000
C        0.04670000      -0.00280000      -0.05950000
C       -1.10300000      -0.76480000      -0.09540000
N       -0.72780000      -2.08060000      -0.05910000
C        0.64280000      -2.19600000      -0.00020000
C        1.14410000      -0.91340000       0.00050000
N        2.46690000      -0.46990000       0.04870000
C        3.57200000      -1.25690000       0.10710000
O        3.56770000      -2.47210000       0.12600000
H       -0.14810000       1.83510000      -0.91340000
H       -0.21740000       1.86100000       0.71620000
H       -2.14020000      -0.47450000      -0.14320000
H       -1.36100000      -2.85960000      -0.07290000
H        1.14740000      -3.14330000       0.03580000
H        2.56810000       0.53620000       0.03720000
H        4.50010000      -0.65360000       0.13640000
