23
Properties=species:S:1:pos:R:3 gdb_121107=T pbc="F F F"
C       -0.50050000       1.48920000      -0.45690000
C       -0.23980000      -0.00110000      -0.22380000
C       -1.51890000      -0.79370000       0.06080000
C       -1.27070000      -2.28640000       0.27830000
C       -2.55760000      -3.11800000       0.48920000
C       -2.80130000      -3.75920000      -0.87890000
O       -3.53540000      -2.82660000      -1.66400000
C       -1.36380000      -3.94790000      -1.37050000
O       -0.63230000      -2.83510000      -0.89120000
H        0.42930000       2.03110000      -0.65750000
H       -1.16750000       1.64500000      -1.31230000
H       -0.97360000       1.95280000       0.41650000
H        0.25450000      -0.43660000      -1.09850000
H        0.45820000      -0.12440000       0.61590000
H       -2.01110000      -0.39270000       0.95800000
H       -2.22770000      -0.68640000      -0.76850000
H       -0.58460000      -2.41850000       1.12780000
H       -2.40140000      -3.89820000       1.23960000
H       -3.41100000      -2.51050000       0.79620000
H       -3.33770000      -4.71590000      -0.80750000
H       -3.52110000      -3.12510000      -2.57890000
H       -0.95430000      -4.89520000      -0.98000000
H       -1.28620000      -3.97390000      -2.46450000
