19
Properties=species:S:1:pos:R:3 gdb_103310=T pbc="F F F"
C       -0.11550000       1.58270000       0.04690000
C       -0.02240000       0.05720000       0.03630000
C       -1.43010000      -0.52970000      -0.14110000
O       -2.03030000      -0.14800000      -1.37170000
C        1.12790000      -0.62420000      -0.82040000
C        2.13290000      -0.16850000       0.29500000
C        0.88890000      -0.66510000       1.11130000
C        0.93470000      -1.83270000       0.11090000
O        0.90880000      -3.02410000       0.08030000
H        0.84400000       2.09900000       0.00590000
H       -0.70940000       1.90190000      -0.81340000
H       -0.63740000       1.91940000       0.94970000
H       -1.41620000      -1.62330000      -0.03440000
H       -2.08800000      -0.13570000       0.64210000
H       -1.57870000      -0.62110000      -2.07800000
H        1.27620000      -0.59160000      -1.89880000
H        3.05190000      -0.74840000       0.39610000
H        2.33570000       0.89850000       0.34470000
H        0.76290000      -0.68030000       2.19240000
