18
Properties=species:S:1:pos:R:3 gdb_88738=T pbc="F F F"
C        0.20800000       1.50630000      -0.09490000
C        0.24230000       0.01110000       0.08760000
O        1.52250000      -0.64310000       0.12340000
C        0.72180000      -0.66830000       1.30250000
C        1.23570000       0.05390000       2.52020000
C        2.38810000      -0.52640000       3.29610000
N        2.53370000       0.70050000       2.55480000
C        3.46450000       0.87770000       1.53630000
O        4.57920000       0.42030000       1.56160000
H        0.84780000       2.02590000       0.62130000
H        0.53150000       1.77420000      -1.10570000
H       -0.81700000       1.87010000       0.03420000
H       -0.48940000      -0.53440000      -0.51070000
H        0.29350000      -1.64650000       1.53200000
H        0.46040000       0.57280000       3.08380000
H        2.40870000      -0.44460000       4.37920000
H        2.88100000      -1.40320000       2.88260000
H        3.10710000       1.56930000       0.75660000
