19
Properties=species:S:1:pos:R:3 gdb_73360=T pbc="F F F"
C        0.03010000       1.49500000       0.08930000
C       -0.01330000      -0.01750000      -0.03380000
C        0.55370000      -0.57390000      -1.35550000
O        0.02420000      -1.89830000      -1.47420000
C       -1.20800000      -1.92470000      -0.79320000
C       -1.16430000      -1.98140000       0.71940000
C        0.21200000      -1.88590000       1.36100000
O        0.71230000      -0.58210000       1.06610000
C       -1.40920000      -0.67360000       0.00170000
H        1.06390000       1.85110000       0.05410000
H       -0.52650000       1.96990000      -0.72370000
H       -0.40180000       1.80760000       1.04340000
H        0.23300000       0.04010000      -2.21100000
H        1.64450000      -0.63620000      -1.33960000
H       -2.00250000      -2.42410000      -1.33730000
H       -1.96280000      -2.49170000       1.24600000
H        0.15580000      -1.99350000       2.44980000
H        0.89270000      -2.65240000       0.96770000
H       -2.32010000      -0.09140000       0.05220000
