19
Properties=species:S:1:pos:R:3 gdb_96430=T pbc="F F F"
C       -0.25530000       1.44770000      -0.07080000
C        0.05730000      -0.04030000       0.13260000
C        0.71200000      -0.65830000      -1.11370000
O        2.02410000      -0.13570000      -1.30590000
C        2.83380000      -0.38040000      -0.19300000
O        2.33330000       0.20800000       0.98570000
C        1.04060000      -0.29130000       1.29440000
C        0.62910000       0.31100000       2.62700000
O       -0.49760000       0.29370000       3.04810000
H        0.65940000       2.01290000      -0.26460000
H       -0.92330000       1.58160000      -0.92730000
H       -0.74990000       1.87020000       0.80700000
H       -0.86770000      -0.58350000       0.35540000
H        0.76090000      -1.75590000      -1.01450000
H        0.15080000      -0.42110000      -2.02120000
H        2.94220000      -1.47150000      -0.03560000
H        3.80590000       0.07510000      -0.38950000
H        1.10380000      -1.38490000       1.46520000
H        1.47570000       0.75340000       3.19650000
