21
Properties=species:S:1:pos:R:3 gdb_88543=T pbc="F F F"
C        0.21230000       1.54750000      -0.32150000
C        0.03830000       0.06750000      -0.06020000
C        1.21390000      -0.87150000      -0.12380000
C        0.55470000      -0.59340000       1.20890000
C        1.21810000       0.17720000       2.29350000
C        2.64380000       0.70540000       2.30150000
C        2.19440000      -0.22050000       3.38650000
O        1.48750000       0.49060000       4.40300000
C        0.46480000       0.86100000       3.43990000
H        1.16630000       1.91490000       0.06610000
H        0.18580000       1.75910000      -1.39620000
H       -0.58570000       2.13250000       0.15000000
H       -0.90200000      -0.33740000      -0.42590000
H        1.08440000      -1.85420000      -0.56390000
H        2.18830000      -0.43030000      -0.30680000
H       -0.07880000      -1.39530000       1.58330000
H        3.29530000       0.26190000       1.55540000
H        2.85430000       1.74520000       2.54060000
H        2.66190000      -1.16230000       3.65080000
H        0.31660000       1.94630000       3.38060000
H       -0.48580000       0.37120000       3.68310000
