22
Properties=species:S:1:pos:R:3 gdb_57218=T pbc="F F F"
C        1.10070000       1.24400000      -0.64280000
N        0.37890000       0.01410000      -0.34390000
C        0.50680000      -0.63960000       0.86640000
C        1.13130000       0.14400000       2.01390000
O        0.12150000      -1.78490000       1.02510000
C       -0.11910000      -0.74670000      -1.47540000
C        0.90790000      -1.64730000      -2.13600000
C       -1.54790000      -1.20310000      -1.40900000
C       -1.16860000      -0.06720000      -2.32690000
H        2.14610000       1.06300000      -0.93160000
H        0.60710000       1.75430000      -1.47250000
H        1.09680000       1.91850000       0.21420000
H        2.17060000       0.41520000       1.80210000
H        0.58420000       1.06910000       2.22210000
H        1.10320000      -0.49490000       2.89580000
H        1.25690000      -2.39990000      -1.42320000
H        0.47470000      -2.16580000      -2.99640000
H        1.77210000      -1.07540000      -2.49350000
H       -1.78300000      -2.17040000      -1.83850000
H       -2.10560000      -0.96420000      -0.51290000
H       -1.49010000       0.92950000      -2.04450000
H       -1.13890000      -0.24120000      -3.39720000
