20
Properties=species:S:1:pos:R:3 gdb_91207=T pbc="F F F"
C       -0.17680000       1.54590000       0.03030000
C        0.05610000       0.04140000      -0.00460000
C        1.16850000      -0.53130000      -0.93940000
C        1.81850000      -1.25600000       0.27010000
N        2.80670000      -0.46210000       1.00270000
C        1.88730000       0.17670000       1.81450000
O        1.99380000       1.06080000       2.62330000
C        0.72540000      -0.66210000       1.23180000
C       -0.13620000      -1.44170000       2.19660000
H        0.74650000       2.09450000       0.23970000
H       -0.56800000       1.89610000      -0.93130000
H       -0.90140000       1.81720000       0.80520000
H       -0.89300000      -0.46590000      -0.20940000
H        0.79130000      -1.20500000      -1.71250000
H        1.81680000       0.21180000      -1.41220000
H        2.04760000      -2.31980000       0.19380000
H        3.71880000      -0.13650000       0.70910000
H       -0.73090000      -0.75610000       2.81030000
H       -0.82730000      -2.10680000       1.66760000
H        0.47090000      -2.04910000       2.87580000
