15
Properties=species:S:1:pos:R:3 gdb_35193=T pbc="F F F"
C       -0.11070000      -1.19050000      -0.00510000
C       -0.03520000       0.00910000       0.00250000
C        0.04030000       1.44290000      -0.01470000
O        0.63200000       2.08980000       1.14350000
C        1.33330000       2.14360000      -0.07550000
C        2.78260000       1.62640000      -0.22250000
C        3.10080000       2.96370000      -0.91870000
O        2.22870000       3.06810000      -2.04870000
C        1.71600000       3.44840000      -0.76390000
H       -0.17580000      -2.25070000      -0.00780000
H       -0.83890000       1.95730000      -0.40020000
H        3.25300000       1.52050000       0.75830000
H        2.94060000       0.72680000      -0.82000000
H        4.03310000       3.51360000      -0.95090000
H        1.30110000       4.44200000      -0.64400000
