19
Properties=species:S:1:pos:R:3 gdb_74939=T pbc="F F F"
C       -0.01380000       1.50180000       0.07670000
C       -0.05610000       0.01010000      -0.00870000
C       -0.06540000      -0.75860000      -1.10400000
C       -0.00310000      -2.23000000      -0.78510000
C        1.44760000      -2.77690000      -0.47130000
C        1.16930000      -2.61010000       1.04310000
O        1.39810000      -1.27240000       1.53970000
C        0.01710000      -0.86920000       1.22170000
C       -0.31410000      -2.29630000       0.74410000
H        0.90620000       1.83580000       0.57280000
H       -0.05470000       1.96690000      -0.91200000
H       -0.84910000       1.89100000       0.67260000
H       -0.03850000      -0.38040000      -2.12160000
H       -0.58800000      -2.86260000      -1.45550000
H        1.55510000      -3.83170000      -0.74310000
H        2.28820000      -2.20860000      -0.87420000
H        1.54050000      -3.37090000       1.73380000
H       -0.46860000      -0.46510000       2.11590000
H       -1.18100000      -2.83420000       1.12170000
