17
Properties=species:S:1:pos:R:3 gdb_66390=T pbc="F F F"
O        0.04500000       1.51520000       0.08460000
C       -0.00390000       0.11500000       0.03530000
C        0.72070000      -0.49470000       1.26550000
O       -0.00410000      -0.24850000       2.45200000
C       -1.31240000      -0.74550000       2.36900000
O       -2.05160000      -0.13780000       1.34450000
C       -1.47560000      -0.37630000       0.07740000
C        0.65690000      -0.38280000      -1.23470000
O        1.13520000       0.37840000      -2.04110000
H        0.49920000       1.78990000      -0.72800000
H        0.86030000      -1.58040000       1.12040000
H        1.69640000      -0.01910000       1.38280000
H       -1.28840000      -1.84300000       2.21500000
H       -1.80820000      -0.50320000       3.30990000
H       -2.06530000       0.18290000      -0.65160000
H       -1.52050000      -1.45220000      -0.16690000
H        0.68150000      -1.48080000      -1.38890000
