19
Properties=species:S:1:pos:R:3 gdb_15111=T pbc="F F F"
C        0.06650000      -1.18600000      -0.27510000
C        0.02090000       0.00020000      -0.08630000
C       -0.00330000       1.44060000       0.13660000
C        1.39270000       2.08730000       0.04190000
C        1.34280000       3.59820000       0.26630000
N        2.68120000       4.17400000       0.21410000
C        3.14950000       4.60030000      -1.10110000
C        2.76000000       5.60180000      -0.07050000
H        0.09610000      -2.23440000      -0.43910000
H       -0.67650000       1.90960000      -0.59350000
H       -0.43740000       1.64880000       1.12370000
H        2.06050000       1.63480000       0.78120000
H        1.82300000       1.87420000      -0.94290000
H        0.66390000       4.06400000      -0.47430000
H        0.92520000       3.81430000       1.25820000
H        4.19570000       4.40680000      -1.31920000
H        2.47590000       4.47420000      -1.94800000
H        1.82830000       6.14230000      -0.23260000
H        3.51630000       6.15360000       0.48030000
