15
Properties=species:S:1:pos:R:3 gdb_28246=T pbc="F F F"
N        0.12000000       1.31700000       0.07250000
C       -0.05040000      -0.04890000       0.01700000
N       -1.15140000      -0.73200000       0.02280000
C       -0.69540000      -2.05590000       0.09740000
C        0.63530000      -2.05240000       0.10460000
O        1.32300000      -3.20300000       0.08070000
C        0.23470000      -4.19920000       0.20230000
C       -1.16110000      -3.47880000       0.04090000
O        1.12510000      -0.78980000       0.05930000
H        0.90680000       1.65540000      -0.46570000
H       -0.73630000       1.80360000      -0.15410000
H        0.42010000      -4.95680000      -0.55990000
H        0.33570000      -4.64930000       1.19290000
H       -1.83990000      -3.77880000       0.84630000
H       -1.64560000      -3.74140000      -0.90800000
