14
Properties=species:S:1:pos:R:3 gdb_42237=T pbc="F F F"
O        0.01900000      -0.09890000       0.02120000
C        0.00410000       1.11170000       0.01100000
C        1.21420000       1.91090000      -0.03240000
C        2.19940000       2.60170000      -0.07020000
C       -1.28860000       1.91250000       0.05100000
C       -1.74120000       2.52260000      -1.31790000
C       -2.91830000       1.51810000      -1.21970000
O       -3.83180000       1.19340000      -1.92230000
N       -2.50290000       1.10680000       0.03340000
H        3.08220000       3.19380000      -0.10360000
H       -1.23480000       2.63910000       0.87040000
H       -2.02030000       3.57640000      -1.29360000
H       -1.07050000       2.33510000      -2.15810000
H       -2.68020000       0.23480000       0.51190000
