19
Properties=species:S:1:pos:R:3 gdb_83248=T pbc="F F F"
C       -0.11640000       1.50800000      -0.03650000
C        0.02720000       0.00590000      -0.01490000
C       -0.84410000      -0.81950000       0.92440000
O       -1.38960000      -2.04720000       0.51720000
C        0.64580000      -0.75950000       1.13060000
O        1.28390000      -1.91710000       0.64030000
C        1.51790000      -1.73740000      -0.76960000
C        0.47420000      -0.72120000      -1.29620000
O       -0.57970000      -1.28530000      -2.04730000
H        0.82420000       1.99380000      -0.32060000
H       -0.88390000       1.81090000      -0.75680000
H       -0.40750000       1.89810000       0.94410000
H       -1.49950000      -0.27100000       1.59590000
H       -0.69240000      -2.70300000       0.67500000
H        1.11570000      -0.31220000       2.00150000
H        2.53880000      -1.35860000      -0.91380000
H        1.42220000      -2.70690000      -1.26480000
H        0.96550000      -0.01150000      -1.97010000
H       -1.15000000      -1.74510000      -1.41320000
