19
Properties=species:S:1:pos:R:3 gdb_98226=T pbc="F F F"
C       -1.49000000       0.86130000       0.53250000
N       -0.37110000       0.05180000       0.03690000
C        0.67550000      -0.34800000       0.86080000
C        0.68410000       0.17000000       2.29130000
O        1.56430000      -1.08490000       0.47610000
C       -0.51410000      -0.39330000      -1.29900000
N       -1.60950000      -0.12330000      -1.88940000
C        0.63650000      -1.13260000      -1.99300000
O        0.34830000      -1.31800000      -3.36870000
H       -1.72850000       1.63020000      -0.20250000
H       -2.38620000       0.24760000       0.66280000
H       -1.22620000       1.32860000       1.47660000
H       -0.21280000      -0.12800000       2.84200000
H        1.56060000      -0.26010000       2.77450000
H        0.75470000       1.26130000       2.33080000
H       -1.55900000      -0.50920000      -2.83340000
H        1.58130000      -0.60480000      -1.83770000
H        0.76390000      -2.12380000      -1.55580000
H        0.52350000      -0.48840000      -3.82450000
