21
Properties=species:S:1:pos:R:3 gdb_109187=T pbc="F F F"
C        0.01520000       1.51960000       0.27700000
C       -0.03890000       0.03220000      -0.11500000
C       -1.42360000      -0.54440000      -0.08660000
C       -2.11220000      -1.03960000      -1.11760000
C       -3.49780000      -1.49610000      -0.73650000
C       -3.41720000      -1.55250000       0.82140000
C       -2.25060000      -0.58580000       1.18450000
C       -4.67090000      -1.27350000       1.50510000
C       -5.70710000      -1.03050000       2.06510000
H        1.04280000       1.89340000       0.23880000
H       -0.59270000       2.12510000      -0.40260000
H       -0.35950000       1.67970000       1.29290000
H        0.38790000      -0.09910000      -1.11570000
H        0.60340000      -0.53410000       0.57490000
H       -1.74600000      -1.08240000      -2.13840000
H       -4.26140000      -0.77790000      -1.06420000
H       -3.77720000      -2.46540000      -1.16250000
H       -3.09310000      -2.56570000       1.08980000
H       -1.68730000      -0.93530000       2.05730000
H       -2.63450000       0.41060000       1.43920000
H       -6.62200000      -0.82140000       2.56140000
