13
Properties=species:S:1:pos:R:3 gdb_45464=T pbc="F F F"
O       -0.06870000       0.04300000       0.29230000
C       -0.03050000       1.20310000       0.02550000
O       -1.12480000       1.93700000      -0.32190000
C       -0.81790000       3.31950000      -0.55770000
C       -1.02050000       4.20080000       0.68110000
O        0.40460000       4.18910000       0.95600000
C        0.68740000       3.52170000      -0.29950000
C        1.21340000       2.12310000      -0.03440000
O        2.34120000       1.75210000       0.11260000
H       -1.27100000       3.61680000      -1.50170000
H       -1.37670000       5.21440000       0.46520000
H       -1.61030000       3.75370000       1.48610000
H        1.29090000       4.11930000      -0.98610000
