15
Properties=species:S:1:pos:R:3 gdb_10112=T pbc="F F F"
O        0.16490000       1.41810000       0.05750000
C        0.07330000       0.01910000      -0.02830000
C       -1.39490000      -0.48190000      -0.06260000
C       -1.46320000      -2.01830000      -0.22240000
C       -2.88100000      -2.54340000      -0.35540000
O       -3.25010000      -3.25290000      -1.25350000
C       -2.07580000      -0.02680000       1.15350000
N       -2.56040000       0.35320000       2.13230000
H       -0.14640000       1.69250000       0.92790000
H        0.55210000      -0.26900000      -0.96870000
H        0.60460000      -0.48740000       0.79140000
H       -1.88530000       0.00030000      -0.91670000
H       -0.89840000      -2.32440000      -1.10670000
H       -1.00840000      -2.48900000       0.65980000
H       -3.57460000      -2.22540000       0.45390000
