15
Properties=species:S:1:pos:R:3 gdb_14078=T pbc="F F F"
C       -0.04310000       1.54260000      -0.06720000
C       -0.03150000       0.04250000       0.05710000
O        1.23570000      -0.61970000      -0.11990000
C        0.64230000      -0.65680000       1.15330000
C        1.28010000      -0.15180000       2.46580000
N        0.79990000      -1.40600000       3.06010000
C        0.22980000      -1.92860000       1.91700000
O       -0.35660000      -2.94680000       1.67570000
H        0.81700000       1.98650000       0.44060000
H       -0.00950000       1.83830000      -1.12060000
H       -0.96050000       1.95350000       0.36760000
H       -0.85970000      -0.48480000      -0.41780000
H        2.36950000      -0.05760000       2.42810000
H        0.83720000       0.75340000       2.89400000
H        0.79040000      -1.72910000       4.01470000
