16
Properties=species:S:1:pos:R:3 gdb_27369=T pbc="F F F"
C       -0.01870000       1.49210000       0.06170000
C       -0.00570000      -0.00900000      -0.03870000
N       -0.05360000      -0.59730000      -1.17800000
C       -0.02270000      -2.02040000      -1.24410000
O       -0.06260000      -2.58280000      -2.32150000
C        0.04170000      -2.73240000       0.02810000
C        0.09300000      -2.05740000       1.20050000
N        0.24030000      -2.61010000       2.46730000
N        0.05610000      -0.67840000       1.16880000
H        0.88630000       1.86150000       0.55830000
H       -0.06790000       1.90890000      -0.94280000
H       -0.88170000       1.84080000       0.64000000
H        0.03790000      -3.81490000       0.00930000
H        0.16460000      -3.61800000       2.46530000
H       -0.36370000      -2.20880000       3.17430000
H        0.23460000      -0.16270000       2.01630000
