18
Properties=species:S:1:pos:R:3 gdb_46887=T pbc="F F F"
O       -0.01720000      -0.01750000       0.48620000
C       -0.06200000       1.14480000       0.11300000
N       -1.25110000       1.83650000       0.10370000
C       -1.54940000       3.04160000      -0.65210000
C       -0.88760000       4.30600000      -0.12730000
C       -0.30130000       4.37610000       1.24410000
C        0.62440000       4.33240000       0.03050000
C        1.46260000       3.16260000      -0.30110000
C        1.17650000       1.85150000      -0.30280000
H       -2.03040000       1.25840000       0.38020000
H       -1.28230000       2.91570000      -1.71140000
H       -2.63490000       3.17210000      -0.61430000
H       -1.32740000       5.21490000      -0.52910000
H       -0.35650000       5.31100000       1.79010000
H       -0.34790000       3.48380000       1.85650000
H        1.09830000       5.27850000      -0.20880000
H        2.48040000       3.42420000      -0.58480000
H        1.96930000       1.14890000      -0.53730000
