23
Properties=species:S:1:pos:R:3 gdb_59677=T pbc="F F F"
C       -0.04180000       1.56340000      -0.06350000
C        0.05520000       0.03820000       0.08250000
C        0.77180000      -0.35020000       1.38320000
C       -1.32960000      -0.59770000       0.00390000
C       -2.17240000      -0.46210000      -1.29320000
C       -2.68680000      -1.90700000      -1.08020000
C       -1.48890000      -2.16620000      -0.10310000
C       -0.37450000      -2.86390000      -0.71770000
C        0.54160000      -3.44640000      -1.23770000
H        0.95230000       2.02230000      -0.05160000
H       -0.53010000       1.84920000      -1.00080000
H       -0.61850000       2.00170000       0.76030000
H        0.64570000      -0.35040000      -0.75790000
H        0.88330000      -1.43520000       1.46750000
H        1.77270000       0.09180000       1.42650000
H        0.21510000       0.00450000       2.25940000
H       -1.92700000      -0.26790000       0.86350000
H       -2.91290000       0.33960000      -1.33720000
H       -1.52890000      -0.39320000      -2.17590000
H       -3.63750000      -1.93290000      -0.54160000
H       -2.75220000      -2.55950000      -1.95190000
H       -1.75420000      -2.66370000       0.83450000
H        1.34930000      -3.96620000      -1.69010000
