17
Properties=species:S:1:pos:R:3 gdb_2000=T pbc="F F F"
C        0.04110000       1.52560000       0.02720000
C        0.05330000      -0.00040000      -0.05090000
O       -1.25470000      -0.53850000       0.14800000
C        0.51900000      -0.51190000      -1.41610000
C        0.63800000      -2.01550000      -1.45390000
C        1.66120000      -2.69880000      -2.25240000
O        1.80820000      -2.57110000      -0.83730000
H        1.04510000       1.93680000      -0.12100000
H       -0.62480000       1.94250000      -0.73540000
H       -0.31380000       1.86140000       1.00820000
H        0.74230000      -0.39680000       0.71180000
H       -1.53430000      -0.32020000       1.04220000
H       -0.20260000      -0.18280000      -2.17510000
H        1.48980000      -0.06690000      -1.65860000
H       -0.27870000      -2.55540000      -1.22120000
H        1.48300000      -3.70990000      -2.61660000
H        2.35790000      -2.11050000      -2.84940000
