16
Properties=species:S:1:pos:R:3 gdb_22946=T pbc="F F F"
O       -0.12390000       1.35750000      -0.04420000
N        0.01960000      -0.03410000       0.03650000
C       -1.10150000      -0.61410000       0.00570000
C       -2.56310000      -0.25710000      -0.14900000
N       -2.82890000      -1.70620000      -0.38980000
C       -1.45030000      -2.08830000       0.02100000
C       -0.70780000      -2.99340000      -0.97420000
C       -1.23020000      -4.35740000      -0.96070000
N       -1.65880000      -5.42980000      -0.92380000
H        0.78990000       1.66240000      -0.02040000
H       -3.00190000       0.16070000       0.76720000
H       -2.82110000       0.39620000      -0.98880000
H       -3.56270000      -2.10590000       0.18280000
H       -1.38380000      -2.52330000       1.02810000
H       -0.80960000      -2.57780000      -1.98120000
H        0.35870000      -3.01130000      -0.72440000
