19
Properties=species:S:1:pos:R:3 gdb_84280=T pbc="F F F"
O        0.02190000       1.44890000       0.03200000
C        0.02910000       0.02440000      -0.03160000
C        0.64120000      -0.61760000       1.20750000
C       -0.09620000      -1.65860000       1.57700000
C       -0.64100000      -2.43000000       2.75480000
C       -2.05840000      -2.14440000       2.11910000
C       -1.33900000      -1.85010000       0.75710000
C       -1.44710000      -0.55840000      -0.07620000
O       -2.33840000       0.34510000       0.54840000
H       -0.20040000       1.67660000       0.94290000
H        0.56520000      -0.21060000      -0.95910000
H        1.48930000      -0.17620000       1.71880000
H       -0.40400000      -3.49870000       2.72210000
H       -0.42850000      -2.05070000       3.75690000
H       -2.78180000      -2.96220000       2.13880000
H       -2.50660000      -1.23760000       2.52560000
H       -1.32580000      -2.74050000       0.11950000
H       -1.76140000      -0.74920000      -1.11240000
H       -2.15000000       1.20690000       0.15490000
