23
Properties=species:S:1:pos:R:3 gdb_102576=T pbc="F F F"
C       -0.30600000       1.14680000      -0.64950000
C        0.13400000      -0.24450000      -0.18950000
C        0.69320000      -0.25510000       1.23460000
O       -0.35520000       0.14410000       2.10730000
C        0.06480000       0.53740000       3.39450000
C        1.18030000      -1.64630000       1.60980000
O        2.29330000      -2.16350000       0.87420000
C        2.45200000      -1.97100000       2.28420000
C        3.48630000      -0.97070000       2.73230000
H        0.53950000       1.84410000      -0.66380000
H       -0.72440000       1.11180000      -1.65980000
H       -1.06540000       1.55230000       0.02350000
H       -0.71430000      -0.93930000      -0.22900000
H        0.90730000      -0.64610000      -0.85270000
H        1.52430000       0.46510000       1.29730000
H        0.52690000      -0.28660000       3.95690000
H        0.78350000       1.37030000       3.35030000
H       -0.82520000       0.87060000       3.93430000
H        0.35600000      -2.35400000       1.73070000
H        2.46710000      -2.90830000       2.84580000
H        3.44830000      -0.05320000       2.14190000
H        3.34310000      -0.71660000       3.78820000
H        4.48880000      -1.39800000       2.62530000
