16
Properties=species:S:1:pos:R:3 gdb_20660=T pbc="F F F"
C        0.01720000       1.52870000      -0.02310000
C        0.01040000       0.02600000       0.01720000
C       -0.01200000      -0.73100000      -1.15850000
N       -0.01960000      -2.06080000      -1.21500000
N       -0.00510000      -2.75240000      -0.07860000
C        0.01650000      -2.09100000       1.07630000
C        0.02560000      -0.69880000       1.20820000
C        0.05030000      -0.04400000       2.56110000
H        0.90680000       1.93730000       0.47000000
H        0.00300000       1.89550000      -1.05220000
H       -0.85250000       1.94610000       0.49740000
H       -0.02490000      -0.23290000      -2.12540000
H        0.02740000      -2.72100000       1.96300000
H        0.93530000       0.59160000       2.68100000
H       -0.82400000       0.60040000       2.70880000
H        0.05920000      -0.78950000       3.35980000
