19
Properties=species:S:1:pos:R:3 gdb_78022=T pbc="F F F"
C       -0.09900000       1.47920000      -0.06770000
C        0.01530000      -0.01500000       0.02380000
O       -1.17090000      -0.66600000      -0.36470000
C       -1.26390000      -1.93630000       0.26250000
C       -0.21160000      -1.99020000       1.40830000
O        0.59350000      -3.17770000       1.37240000
C        0.66260000      -0.78350000       1.15900000
C        1.31520000      -0.74620000      -0.21650000
O        1.35350000      -1.88150000      -1.02340000
H        0.84590000       1.95630000       0.20630000
H       -0.34760000       1.77690000      -1.09140000
H       -0.88410000       1.85330000       0.59730000
H       -2.29000000      -2.05770000       0.62930000
H       -1.04370000      -2.73560000      -0.45450000
H       -0.69510000      -1.91400000       2.39070000
H        0.01860000      -3.94100000       1.49300000
H        1.14740000      -0.30610000       2.00240000
H        2.20330000      -0.11740000      -0.28880000
H        1.45490000      -2.64230000      -0.43510000
