19
Properties=species:S:1:pos:R:3 gdb_60816=T pbc="F F F"
C       -0.15400000       1.69670000      -0.22150000
C       -0.01730000       0.17330000      -0.07090000
C       -1.40920000      -0.52240000       0.00950000
O       -1.32640000      -1.89800000      -0.22180000
C       -2.06270000      -0.26390000       1.35440000
O       -2.37220000      -1.17130000       2.08880000
C        0.77820000      -0.39790000      -1.23060000
C        2.24490000      -0.31090000      -1.26290000
O        1.58140000      -1.54430000      -0.98620000
H        0.83170000       2.16900000      -0.25020000
H       -0.67330000       1.95280000      -1.15210000
H       -0.71200000       2.14890000       0.60330000
H        0.54330000      -0.06430000       0.84200000
H       -2.05540000      -0.05350000      -0.75630000
H       -1.62530000      -2.32540000       0.59620000
H       -2.23600000       0.79220000       1.63950000
H        0.24880000      -0.41980000      -2.18570000
H        2.76640000      -0.25830000      -2.21770000
H        2.77690000       0.13260000      -0.42120000
