16
Properties=species:S:1:pos:R:3 gdb_17877=T pbc="F F F"
O        0.00330000       0.01520000       0.10670000
C       -0.01340000       1.20640000       0.05320000
C       -1.06500000       2.32090000      -0.02110000
C       -1.30760000       2.85720000       1.40560000
C       -0.01680000       3.55880000       1.89600000
C        1.27680000       2.89160000       1.36650000
C        1.00540000       2.34850000      -0.05240000
O       -0.05020000       3.13690000      -0.68250000
H       -1.96570000       2.18710000      -0.62390000
H       -2.14300000       3.56400000       1.41360000
H       -1.59080000       2.02060000       2.05550000
H       -0.03610000       4.58580000       1.52520000
H       -0.00110000       3.61580000       2.98780000
H        2.09290000       3.62040000       1.34950000
H        1.60170000       2.06310000       2.00720000
H        1.89080000       2.23840000      -0.68220000
