21
Properties=species:S:1:pos:R:3 gdb_58595=T pbc="F F F"
C        0.54850000       0.58170000      -1.08460000
C        0.16260000       0.39360000       0.38830000
C       -0.96750000      -0.63900000       0.53050000
C        1.35790000       0.06450000       1.28430000
C        1.09800000       0.07340000       2.79920000
C        0.61680000      -1.19070000       3.34510000
C        0.24510000      -2.23920000       3.80070000
C        2.51780000      -0.70110000       0.80880000
O        2.58680000       0.72370000       0.94180000
H        0.79690000      -0.37410000      -1.55920000
H       -0.29420000       1.00680000      -1.63810000
H        1.40520000       1.25070000      -1.18610000
H       -0.21810000       1.35950000       0.75340000
H       -0.63240000      -1.63000000       0.20500000
H       -1.32150000      -0.73350000       1.55940000
H       -1.81790000      -0.35040000      -0.09540000
H        2.04520000       0.34040000       3.28090000
H        0.39040000       0.87680000       3.04140000
H       -0.09040000      -3.16250000       4.20380000
H        3.11180000      -1.26670000       1.52550000
H        2.55160000      -1.07380000      -0.21220000
