24
Properties=species:S:1:pos:R:3 gdb_100003=T pbc="F F F"
C       -0.45430000       1.52330000       0.12690000
C       -0.33910000       0.00810000       0.33020000
C        0.82420000      -0.48840000       1.23270000
C        2.19230000      -0.03960000       0.68250000
C        0.68240000       0.08750000       2.65540000
N        0.78840000      -1.97770000       1.25010000
C        1.32800000      -2.72020000       0.11500000
C        0.11900000      -2.70190000       2.19620000
O       -0.00640000      -3.91260000       2.19810000
H        0.43420000       1.94220000      -0.35520000
H       -1.30980000       1.75000000      -0.51660000
H       -0.60750000       2.05590000       1.07040000
H       -1.27250000      -0.37190000       0.76290000
H       -0.24260000      -0.47060000      -0.65120000
H        2.28350000       1.04710000       0.74440000
H        3.00400000      -0.47800000       1.27080000
H        2.33310000      -0.32440000      -0.36290000
H       -0.32720000      -0.01880000       3.06040000
H        1.38540000      -0.38850000       3.34490000
H        0.90910000       1.15620000       2.63320000
H        2.42220000      -2.69840000       0.09940000
H        0.99820000      -3.75310000       0.22190000
H        0.95920000      -2.32150000      -0.83550000
H       -0.31010000      -2.07840000       2.99410000
