17
Properties=species:S:1:pos:R:3 gdb_13973=T pbc="F F F"
C       -0.00460000       1.48830000       0.05060000
C       -0.02470000       0.03410000       0.00980000
C       -0.04810000      -1.17080000      -0.00970000
C       -0.04410000      -2.59460000      -0.08130000
C        0.75790000      -3.44050000      -1.09610000
C       -0.41020000      -4.47950000      -1.12330000
C       -1.16700000      -3.61780000      -0.10600000
N       -0.38560000      -3.39790000       1.09910000
H        0.89880000       1.88630000      -0.42510000
H       -0.86870000       1.91630000      -0.47010000
H       -0.02390000       1.85550000       1.08270000
H        0.88800000      -2.93690000      -2.05560000
H        1.73550000      -3.78390000      -0.74220000
H       -0.89730000      -4.52660000      -2.09980000
H       -0.18360000      -5.49980000      -0.79590000
H       -2.23840000      -3.46220000      -0.05040000
H        0.29470000      -4.13820000       1.26950000
