16
Properties=species:S:1:pos:R:3 gdb_24066=T pbc="F F F"
N       -0.00930000      -1.16380000      -0.20460000
C       -0.02460000      -0.00880000      -0.16900000
C       -0.01590000       1.45050000      -0.11510000
C        1.39540000       2.02050000       0.18160000
C        1.40080000       3.50790000       0.22190000
C        1.66520000       4.42140000       1.19500000
C        1.49060000       5.71490000       0.60070000
C        1.12990000       5.48890000      -0.68730000
O        1.06960000       4.15190000      -0.93700000
H       -0.37760000       1.84430000      -1.07020000
H       -0.72140000       1.78170000       0.65430000
H        1.74980000       1.64200000       1.14360000
H        2.08900000       1.65390000      -0.58370000
H        1.95410000       4.20240000       2.21120000
H        1.61920000       6.67590000       1.07310000
H        0.89240000       6.13010000      -1.52000000
