18
Properties=species:S:1:pos:R:3 gdb_88297=T pbc="F F F"
O       -0.18210000       1.51720000      -0.00310000
C       -0.01570000       0.15440000      -0.07970000
C       -0.16250000      -0.73980000       1.08990000
C       -1.24460000      -0.80480000       0.00100000
C       -2.53720000      -0.16340000       0.27280000
O       -2.63030000       0.84090000       0.98000000
C       -3.75800000      -0.73860000      -0.36550000
C       -4.94850000      -0.92170000       0.53090000
N       -4.94040000       0.12850000      -0.47450000
H       -0.96710000       1.67970000       0.54950000
H        0.71090000      -0.10700000      -0.84210000
H        0.47850000      -1.60930000       1.18300000
H       -0.47440000      -0.28410000       2.02410000
H       -1.25320000      -1.66920000      -0.65250000
H       -3.60480000      -1.43090000      -1.18730000
H       -5.62000000      -1.75330000       0.33800000
H       -4.82020000      -0.64730000       1.57410000
H       -4.69700000       1.00970000      -0.02000000
