17
Properties=species:S:1:pos:R:3 gdb_36404=T pbc="F F F"
N        0.01280000      -1.17460000      -0.15420000
C        0.00170000      -0.02140000      -0.09380000
C       -0.01710000       1.44220000       0.01230000
N        1.32270000       1.98650000       0.05050000
C        2.15510000       1.73720000       1.25570000
C        2.56320000       3.21100000       1.21310000
C        3.19110000       4.08140000       2.20040000
O        3.89260000       3.64160000       1.02500000
C        1.45240000       3.45820000       0.19020000
H       -0.54040000       1.84420000      -0.86340000
H       -0.62530000       1.70850000       0.90020000
H        1.57190000       1.47710000       2.15270000
H        2.95050000       1.00100000       1.11220000
H        2.94240000       5.14160000       2.22590000
H        3.54950000       3.66470000       3.14080000
H        1.73760000       3.97830000      -0.72940000
H        0.56630000       3.94480000       0.62830000
