23
Properties=species:S:1:pos:R:3 gdb_120498=T pbc="F F F"
C       -0.06420000       1.61620000      -0.03650000
C        0.02380000       0.08690000       0.01120000
C        0.83910000      -0.53760000      -1.15110000
C        1.56950000      -1.77340000      -0.56120000
C        2.95120000      -2.01720000      -1.18610000
C        3.61080000      -3.31700000      -0.74250000
O        4.84720000      -3.43450000      -1.43220000
C        1.56690000      -1.46060000       0.92290000
C        0.73710000      -0.46520000       1.22740000
H        0.93490000       2.06480000      -0.00650000
H       -0.55800000       1.95460000      -0.95380000
H       -0.63450000       2.00940000       0.81210000
H       -1.00450000      -0.30820000      -0.00320000
H        0.22340000      -0.78540000      -2.02030000
H        1.59130000       0.18900000      -1.48380000
H        0.96160000      -2.67720000      -0.73290000
H        2.85790000      -2.04390000      -2.27880000
H        3.61960000      -1.18080000      -0.94780000
H        3.76720000      -3.31380000       0.34800000
H        2.94500000      -4.16610000      -0.97180000
H        5.28040000      -4.24030000      -1.13640000
H        2.15150000      -2.02460000       1.64210000
H        0.54540000      -0.09210000       2.22870000
