16
Properties=species:S:1:pos:R:3 gdb_27690=T pbc="F F F"
C        0.12660000       1.45740000       0.02820000
C       -0.05430000      -0.01780000       0.01280000
C       -1.16160000      -0.81130000      -0.06200000
C       -0.69810000      -2.16390000      -0.03330000
N       -1.48000000      -3.31100000      -0.01580000
C        0.67520000      -2.09790000       0.05290000
O        1.06610000      -0.76910000       0.08800000
C        1.63980000      -3.10760000       0.10650000
C        2.43680000      -4.01480000       0.13930000
H        0.74150000       1.79170000      -0.81490000
H       -0.84360000       1.95470000      -0.03390000
H        0.62570000       1.78640000       0.94650000
H       -2.18590000      -0.47640000      -0.12010000
H       -2.31750000      -3.24990000      -0.57750000
H       -0.96030000      -4.15260000      -0.22810000
H        3.14390000      -4.80490000       0.18540000
