18
Properties=species:S:1:pos:R:3 gdb_90375=T pbc="F F F"
C       -0.06880000       1.53450000      -0.00760000
C        0.08810000       0.03060000       0.02810000
O        1.13540000      -0.45850000      -0.85410000
C        1.75800000      -1.21440000       0.20400000
C        2.82700000      -0.35280000       0.93220000
O        3.98350000      -0.07460000       0.78290000
N        1.87140000       0.06230000       1.84780000
C        0.74590000      -0.67110000       1.25550000
C       -0.10460000      -1.47500000       2.20830000
H        0.85450000       2.03510000       0.29570000
H       -0.31260000       1.85950000      -1.02340000
H       -0.88250000       1.85220000       0.65390000
H       -0.85930000      -0.46240000      -0.23160000
H        1.94980000      -2.25930000      -0.04250000
H        1.87760000       0.86970000       2.45690000
H       -0.70980000      -0.81670000       2.84310000
H       -0.78970000      -2.12920000       1.66150000
H        0.51960000      -2.09020000       2.86250000
