16
Properties=species:S:1:pos:R:3 gdb_37659=T pbc="F F F"
O       -0.03970000       1.46150000       0.02170000
C        1.37300000       1.72560000       0.00180000
C        1.91770000       0.90990000       1.19950000
C        0.99040000      -0.29070000       1.20150000
C        2.38600000      -0.41120000       0.65840000
N        2.36650000      -0.39850000      -0.81330000
C        1.86600000       0.92450000      -1.23060000
C        0.95930000      -0.24930000      -1.22860000
C        0.06160000       0.02790000       0.00460000
H        1.55620000       2.79750000       0.00330000
H        2.29890000       1.37800000       2.09730000
H        0.63520000      -0.77590000       2.10080000
H        3.16160000      -1.00950000       1.12140000
H        2.30050000       1.39600000      -2.10460000
H        0.61150000      -0.79060000      -2.10100000
H       -0.92930000      -0.42020000       0.00860000
