19
Properties=species:S:1:pos:R:3 gdb_69979=T pbc="F F F"
C       -0.11230000       1.50060000       0.00760000
C        0.02400000       0.00400000       0.06070000
O       -1.25130000      -0.70560000       0.01000000
C       -0.94380000      -1.43230000       1.22760000
C        0.46980000      -0.82200000       1.28940000
C        1.59320000      -1.45500000       0.44140000
C        1.06340000      -2.11860000      -0.81660000
C        1.17580000      -0.62900000      -0.77700000
O        1.98220000       0.09870000      -1.63550000
H        0.86600000       1.97930000       0.10530000
H       -0.53820000       1.80570000      -0.95460000
H       -0.77200000       1.85830000       0.80300000
H       -1.60260000      -1.12240000       2.04790000
H       -1.01960000      -2.51810000       1.09800000
H        0.79000000      -0.34540000       2.21510000
H        2.58620000      -1.68380000       0.80770000
H        1.84060000      -2.59740000      -1.40470000
H        0.09590000      -2.60740000      -0.85270000
H        1.68030000      -0.05330000      -2.53790000
