19
Properties=species:S:1:pos:R:3 gdb_114639=T pbc="F F F"
O       -0.03240000       1.43910000      -0.24740000
C       -0.07740000       0.09790000       0.22390000
C       -1.47600000      -0.42850000      -0.02720000
C       -1.93590000      -0.66900000      -1.51110000
C       -2.14670000      -2.14630000      -1.15560000
O       -0.88420000      -2.65200000      -0.69820000
C       -1.71500000      -1.92860000       0.23760000
C       -2.01410000      -2.62610000       1.52460000
O       -0.86950000      -2.67020000       2.36710000
H        0.86800000       1.76110000      -0.14720000
H        0.64560000      -0.53940000      -0.30520000
H        0.14570000       0.03860000       1.30070000
H       -2.20510000       0.18770000       0.50780000
H       -2.85890000      -0.14060000      -1.75810000
H       -1.18950000      -0.48380000      -2.28640000
H       -2.83960000      -2.86780000      -1.57460000
H       -2.78030000      -2.07920000       2.08350000
H       -2.40080000      -3.63340000       1.31030000
H       -0.18530000      -3.14290000       1.87970000
