21
Properties=species:S:1:pos:R:3 gdb_39474=T pbc="F F F"
C       -0.01320000       1.49400000       0.14980000
C        1.36510000       2.16750000      -0.01560000
C        1.87820000       2.36460000      -1.45630000
C        1.83800000       1.07500000      -2.32350000
O        1.88790000      -0.09980000      -1.51010000
C        0.54600000      -0.56470000      -1.31760000
C       -0.00860000      -0.04040000       0.02040000
C       -0.19590000      -0.02340000      -2.51700000
C        0.53930000       0.92400000      -3.08550000
H       -0.39520000       1.73660000       1.14850000
H       -0.72640000       1.92950000      -0.56030000
H        1.33020000       3.15770000       0.45450000
H        2.10690000       1.58760000       0.54460000
H        1.29490000       3.14630000      -1.95940000
H        2.90760000       2.73740000      -1.40280000
H        2.71100000       1.04990000      -2.98740000
H        0.57740000      -1.66160000      -1.29440000
H        0.60610000      -0.46910000       0.82140000
H       -1.02630000      -0.42770000       0.16400000
H       -1.19550000      -0.33620000      -2.79100000
H        0.27270000       1.55020000      -3.92780000
