20
Properties=species:S:1:pos:R:3 gdb_93093=T pbc="F F F"
C        0.05630000       1.52730000       0.13520000
C        0.03460000       0.00750000       0.02890000
C        0.47720000      -0.47430000      -1.35520000
N        0.48080000      -1.89810000      -1.62790000
C        0.83630000      -2.80050000      -0.82410000
O        1.21750000      -2.77820000       0.48340000
C        0.67540000      -1.81880000       1.40330000
C        1.34840000      -2.08510000       2.73480000
O        0.90350000      -0.49870000       1.04260000
H        1.06690000       1.90890000      -0.04040000
H       -0.61680000       1.97570000      -0.60090000
H       -0.25900000       1.84250000       1.13280000
H       -0.98490000      -0.36360000       0.22470000
H       -0.16340000       0.00380000      -2.10580000
H        1.49590000      -0.09850000      -1.53070000
H        0.91900000      -3.82490000      -1.19000000
H       -0.41070000      -2.00630000       1.44920000
H        2.41740000      -1.87440000       2.65120000
H        0.91760000      -1.43740000       3.50140000
H        1.21280000      -3.12900000       3.02430000
