18
Properties=species:S:1:pos:R:3 gdb_36332=T pbc="F F F"
C        0.06790000      -1.24360000      -0.12370000
C        0.02990000      -0.04310000      -0.10490000
C       -0.01770000       1.41560000      -0.05350000
N        1.30730000       1.99850000       0.07700000
C        2.04760000       1.78700000       1.33630000
C        2.59380000       3.24160000       1.20740000
C        1.39650000       3.46200000       0.23430000
C        2.69530000       4.06250000       2.39280000
C        2.77100000       4.74340000       3.38110000
H        0.10070000      -2.30460000      -0.15130000
H       -0.47000000       1.80120000      -0.97680000
H       -0.68750000       1.72320000       0.77540000
H        1.39390000       1.68460000       2.21640000
H        2.76890000       0.96630000       1.32110000
H        3.53620000       3.24430000       0.65330000
H        1.58290000       4.02060000      -0.68780000
H        0.53440000       3.90120000       0.76110000
H        2.84220000       5.34430000       4.25350000
