22
Properties=species:S:1:pos:R:3 gdb_118034=T pbc="F F F"
C       -0.03610000       1.51050000       0.03030000
C        0.06070000      -0.02210000       0.01920000
C        0.67730000      -0.53500000      -1.29300000
C        0.71760000      -2.05360000      -1.40800000
O        1.22470000      -2.36830000      -2.69570000
N        0.75220000      -0.53670000       1.20510000
C        2.15160000      -0.21270000       1.43550000
C        0.08680000      -1.28230000       2.13570000
O        0.56030000      -1.73250000       3.15850000
H        0.94610000       1.97910000      -0.08520000
H       -0.66330000       1.85350000      -0.79780000
H       -0.47730000       1.86390000       0.96660000
H       -0.95930000      -0.42110000       0.08670000
H        0.08830000      -0.14100000      -2.12870000
H        1.69180000      -0.14030000      -1.42220000
H        1.35020000      -2.47750000      -0.61400000
H       -0.29680000      -2.46340000      -1.26640000
H        1.30810000      -3.32400000      -2.76040000
H        2.30280000       0.86830000       1.52470000
H        2.44390000      -0.69190000       2.36990000
H        2.78660000      -0.58680000       0.62530000
H       -0.97090000      -1.44340000       1.84780000
