22
Properties=species:S:1:pos:R:3 gdb_109862=T pbc="F F F"
C       -0.32980000       1.56700000       0.16780000
C       -0.08070000       0.06370000       0.14050000
C        0.41370000      -0.54680000      -1.17660000
N        1.76290000       0.02620000      -1.42940000
C        1.60990000      -1.14630000      -0.52530000
C        2.33350000      -2.43390000      -0.77230000
C        1.20180000      -0.56100000       0.84120000
C        2.21400000       0.33010000       1.54990000
O        1.72380000       0.84600000       2.78320000
H        0.54180000       2.11800000      -0.19380000
H       -1.17760000       1.82660000      -0.47630000
H       -0.58030000       1.91780000       1.17620000
H       -0.97050000      -0.46800000       0.49090000
H       -0.18490000      -0.91790000      -2.00140000
H        2.07260000      -0.33550000      -2.33150000
H        2.27650000      -2.72100000      -1.82850000
H        3.39420000      -2.35630000      -0.50510000
H        1.90100000      -3.24750000      -0.17980000
H        0.89370000      -1.35470000       1.52900000
H        3.09660000      -0.26650000       1.81050000
H        2.55110000       1.13030000       0.87990000
H        1.07780000       1.52700000       2.57530000
