18
Properties=species:S:1:pos:R:3 gdb_83211=T pbc="F F F"
C        0.14740000       1.52790000      -0.44690000
C        0.06870000       0.06750000      -0.05690000
C        1.23550000      -0.88580000      -0.10600000
O        2.53640000      -0.36320000      -0.18510000
C        2.85160000       0.39680000       0.97470000
C        1.71500000       0.15070000       2.02120000
C        1.29900000       1.37770000       2.70000000
N        0.97560000       2.34720000       3.24010000
C        0.61860000      -0.55290000       1.22390000
H        1.15260000       1.93970000      -0.34720000
H       -0.14190000       1.64470000      -1.49630000
H       -0.52790000       2.13880000       0.15930000
H       -0.87110000      -0.40070000      -0.34290000
H        1.16010000      -1.85710000      -0.58230000
H        3.82480000       0.06940000       1.35490000
H        2.92420000       1.46070000       0.72810000
H        2.06850000      -0.54210000       2.79230000
H       -0.00180000      -1.25520000       1.76690000
