16
Properties=species:S:1:pos:R:3 gdb_44712=T pbc="F F F"
O       -0.02840000      -0.02170000      -0.23020000
C       -0.02220000       1.17360000      -0.12050000
N       -1.01940000       2.12000000      -0.09340000
C       -0.14310000       3.28370000       0.08070000
C       -0.18450000       3.94030000       1.45840000
C        0.72560000       3.08600000       2.35670000
O        0.69470000       3.05880000       3.55690000
C        1.69540000       2.29150000       1.46720000
C        1.06230000       2.26630000       0.07560000
H       -2.02470000       2.03380000      -0.13860000
H       -0.18810000       3.99100000      -0.75070000
H        0.24470000       4.95020000       1.41810000
H       -1.18490000       4.02970000       1.88760000
H        2.65620000       2.82120000       1.46400000
H        1.87540000       1.29960000       1.88800000
H        1.76820000       2.34590000      -0.75040000
