22
Properties=species:S:1:pos:R:3 gdb_110542=T pbc="F F F"
C        0.99790000      -0.10160000       1.27360000
C        0.06390000       0.07190000       0.06980000
C        0.64850000      -0.48990000      -1.23100000
C        0.73080000      -2.01520000      -1.31830000
C       -0.51410000      -2.50620000      -1.97740000
C       -1.37250000      -1.29180000      -2.31020000
C       -0.19520000      -0.31380000      -2.52270000
C        0.65390000      -1.14580000      -3.50130000
N        0.75610000      -2.42330000      -2.74730000
H        1.19380000      -1.15840000       1.48220000
H        1.96380000       0.38530000       1.09850000
H        0.56300000       0.33800000       2.17650000
H       -0.89800000      -0.40460000       0.28950000
H       -0.14550000       1.14010000      -0.07100000
H        1.64260000      -0.04620000      -1.38000000
H        1.31710000      -2.61450000      -0.63240000
H       -0.92580000      -3.49510000      -1.81700000
H       -1.96860000      -1.43050000      -3.21810000
H       -2.04620000      -1.00870000      -1.49760000
H       -0.44250000       0.70710000      -2.81110000
H        0.17040000      -1.32040000      -4.46750000
H        1.65300000      -0.73490000      -3.67510000
