19
Properties=species:S:1:pos:R:3 gdb_39207=T pbc="F F F"
C        0.04610000       1.44700000       0.56420000
C        1.14000000       2.12670000      -0.30940000
C        2.03100000       0.97660000      -0.86220000
C        2.36780000       0.98360000      -2.33300000
C        1.97170000      -0.13140000      -2.95270000
C        1.29240000      -1.11500000      -2.02250000
C        1.15610000      -0.28140000      -0.75880000
O        1.02550000      -0.84060000       0.54250000
C       -0.02970000       0.01490000       0.05100000
H        0.31840000       1.43910000       1.62480000
H       -0.91770000       1.95710000       0.47690000
H        0.66040000       2.64090000      -1.14960000
H        1.71140000       2.87800000       0.24250000
H        2.93460000       0.87070000      -0.24720000
H        2.88950000       1.80570000      -2.81130000
H        2.12460000      -0.34550000      -4.00480000
H        0.33130000      -1.47910000      -2.40380000
H        1.91570000      -2.00180000      -1.84320000
H       -0.98570000      -0.48290000      -0.09430000
