19
Properties=species:S:1:pos:R:3 gdb_102831=T pbc="F F F"
O        0.27930000       1.41850000      -0.14290000
C        0.22580000       0.01450000      -0.37530000
C       -1.17060000      -0.45850000       0.02610000
N       -1.40810000      -0.06030000       1.41220000
C       -2.19940000      -0.77020000       2.24860000
O       -2.78340000      -1.79760000       1.95420000
C       -2.24510000       0.05640000      -0.91620000
C       -2.74720000      -0.82910000      -1.99820000
N       -3.59900000      -0.50420000      -0.84560000
H        1.16340000       1.73290000      -0.35120000
H        0.39730000      -0.22530000      -1.43390000
H        0.97900000      -0.51300000       0.22790000
H       -1.18860000      -1.55340000       0.00950000
H       -1.01830000       0.82140000       1.70830000
H       -2.25210000      -0.32110000       3.25900000
H       -2.21480000       1.13050000      -1.08480000
H       -3.06790000      -0.40440000      -2.94550000
H       -2.32680000      -1.82990000      -2.07430000
H       -3.60910000      -1.27410000      -0.17790000
