13
Properties=species:S:1:pos:R:3 gdb_50204=T pbc="F F F"
O       -0.63430000       0.64850000       0.12210000
C        0.44900000       0.67370000      -0.39660000
C        1.48090000       1.74350000      -0.07650000
O        2.83430000       1.38920000      -0.46000000
C        2.97650000       2.58000000      -1.26500000
C        1.51460000       2.97560000      -1.00610000
O        1.16950000       2.65350000      -2.38320000
C        2.48420000       2.33470000      -2.70660000
O        2.90940000       1.98920000      -3.75490000
H        0.77930000      -0.07200000      -1.14920000
H        1.42430000       2.01110000       0.98430000
H        3.88820000       3.14480000      -1.07590000
H        1.11690000       3.93580000      -0.69150000
