18
Properties=species:S:1:pos:R:3 gdb_49708=T pbc="F F F"
O        0.03640000       0.03940000      -0.37430000
C        0.07480000       1.23230000      -0.15000000
N        1.17540000       1.92000000       0.24300000
C        2.56690000       1.45920000       0.14120000
C        2.95830000       2.05210000      -1.26140000
C        2.16600000       3.39660000      -1.27920000
C        1.43800000       3.35880000       0.11520000
C        2.53370000       3.51680000       1.16270000
C        3.21530000       2.36900000       1.17630000
H       -0.81890000       1.88870000      -0.19770000
H        2.67440000       0.38380000       0.25020000
H        4.03700000       2.18540000      -1.36280000
H        2.61720000       1.38020000      -2.05260000
H        2.80430000       4.27630000      -1.38480000
H        1.42820000       3.41110000      -2.08600000
H        0.55140000       3.98480000       0.20730000
H        2.75370000       4.43760000       1.68540000
H        4.12210000       2.13320000       1.71620000
