14
Properties=species:S:1:pos:R:3 gdb_33564=T pbc="F F F"
N       -0.00790000      -1.14300000      -0.04600000
C       -0.03570000       0.01110000      -0.04340000
C       -0.03990000       1.49470000      -0.03280000
N       -0.59270000       2.00890000       1.22260000
C        0.23380000       3.12360000       1.71180000
C        1.50460000       2.96650000       0.92890000
C        1.37800000       2.06500000      -0.03530000
C       -0.78020000       1.97230000      -1.23130000
N       -1.37380000       2.39630000      -2.12760000
H       -1.58120000       2.21060000       1.16390000
H       -0.21620000       4.11290000       1.53230000
H        0.39660000       3.03420000       2.79350000
H        2.39800000       3.53980000       1.14080000
H        2.10770000       1.74700000      -0.76580000
