19
Properties=species:S:1:pos:R:3 gdb_26410=T pbc="F F F"
C       -0.02610000       1.56790000       0.07190000
C        0.00200000       0.03960000       0.01390000
C        0.63280000      -0.56750000       1.27800000
N       -1.35070000      -0.44700000      -0.24720000
C       -1.56700000      -1.75940000      -0.60780000
C       -0.74150000      -2.69500000      -1.15930000
O       -1.50060000      -3.82820000      -1.39070000
C       -2.72460000      -3.50320000      -0.95490000
N       -2.84070000      -2.30520000      -0.47860000
H        0.98080000       1.96900000       0.21760000
H       -0.44200000       1.98490000      -0.84890000
H       -0.64320000       1.91160000       0.91130000
H        0.60680000      -0.25620000      -0.85380000
H        0.08400000      -0.24920000       2.17180000
H        0.61430000      -1.66000000       1.23850000
H        1.67370000      -0.24600000       1.38850000
H       -2.05670000      -0.10870000       0.39290000
H        0.29300000      -2.74420000      -1.44250000
H       -3.49120000      -4.25800000      -1.03650000
