10
Properties=species:S:1:pos:R:3 gdb_23963=T pbc="F F F"
N        0.17870000      -1.15020000      -0.00600000
C        0.07500000       0.00270000       0.00180000
C       -0.07210000       1.40300000       0.01150000
C       -1.16090000       2.23770000       0.03150000
N       -0.72070000       3.55190000       0.03240000
C        0.56740000       3.45300000       0.01360000
O        1.04260000       2.18830000       0.00000000
C       -2.53330000       1.88000000       0.04910000
N       -3.64860000       1.57510000       0.06320000
H        1.29930000       4.24540000       0.00750000
