20
Properties=species:S:1:pos:R:3 gdb_51176=T pbc="F F F"
O       -0.44020000       0.24050000       0.29080000
C        0.00690000       1.35710000       0.22690000
C        1.40660000       1.70680000      -0.23690000
C        1.38720000       2.75440000      -1.33230000
C        0.86150000       2.37540000      -2.71430000
C        1.32650000       3.51650000      -3.64890000
C        2.60960000       4.08210000      -2.99170000
C        2.43740000       3.79770000      -1.50920000
N        1.15140000       4.13900000      -0.87930000
H       -0.60430000       2.24180000       0.51570000
H        1.94130000       2.11970000       0.62800000
H        1.91080000       0.79100000      -0.56030000
H        1.31240000       1.42030000      -3.01020000
H       -0.22480000       2.23090000      -2.73480000
H        1.49970000       3.17140000      -4.67070000
H        0.55770000       4.29300000      -3.71610000
H        3.49990000       3.55260000      -3.35210000
H        2.75900000       5.14510000      -3.21020000
H        3.29980000       3.86830000      -0.85190000
H        0.54700000       4.64830000      -1.51950000
