25
Properties=species:S:1:pos:R:3 gdb_110140=T pbc="F F F"
C       -0.10110000       1.54410000       0.51600000
C       -0.02320000       0.06870000       0.10380000
C       -1.39140000      -0.57860000      -0.01240000
C       -1.56470000      -2.06440000      -0.30200000
C       -0.39060000      -3.00900000      -0.47840000
C       -0.77550000      -4.46580000      -0.19430000
C       -1.92510000      -1.52510000       1.05140000
O       -1.10500000      -1.91550000       2.11040000
C       -1.27060000      -1.12160000       3.26740000
H        0.89730000       1.98560000       0.59660000
H       -0.66560000       2.13040000      -0.21770000
H       -0.59960000       1.66460000       1.48380000
H        0.50150000      -0.00490000      -0.85770000
H        0.58390000      -0.48260000       0.82840000
H       -2.14020000       0.06490000      -0.47130000
H       -2.41540000      -2.31450000      -0.93330000
H       -0.00860000      -2.91900000      -1.50360000
H        0.42630000      -2.71880000       0.18680000
H        0.07350000      -5.13850000      -0.35280000
H       -1.10990000      -4.57740000       0.84150000
H       -1.58980000      -4.79770000      -0.84850000
H       -2.97960000      -1.45230000       1.32370000
H       -0.60860000      -1.52910000       4.03540000
H       -1.00770000      -0.07020000       3.08710000
H       -2.30730000      -1.16010000       3.63530000
