22
Properties=species:S:1:pos:R:3 gdb_60474=T pbc="F F F"
C       -0.09490000       1.53410000      -0.13560000
C        0.03440000       0.00960000       0.00410000
C        0.78710000      -0.57890000      -1.19690000
C        0.72160000      -0.40910000       1.31590000
C       -0.04630000      -0.03300000       2.57530000
O        0.63580000      -0.59630000       3.68830000
C        0.01280000      -0.29320000       4.90790000
C        0.76510000      -0.91180000       6.00430000
N        1.33520000      -1.38650000       6.88880000
H        0.89100000       2.01340000      -0.10220000
H       -0.55860000       1.79880000      -1.09140000
H       -0.70690000       1.97570000       0.65710000
H       -0.97940000      -0.41720000       0.00580000
H        1.80970000      -0.18680000      -1.24790000
H        0.85200000      -1.66990000      -1.13270000
H        0.28780000      -0.32580000      -2.13780000
H        0.85840000      -1.49670000       1.32520000
H        1.72500000       0.03210000       1.36860000
H       -0.11370000       1.05940000       2.69690000
H       -1.07800000      -0.42230000       2.53140000
H       -0.03250000       0.79460000       5.08520000
H       -1.02420000      -0.66770000       4.94150000
