22
Properties=species:S:1:pos:R:3 gdb_87992=T pbc="F F F"
C       -0.06710000       1.45580000      -0.18060000
C        0.12310000      -0.03310000      -0.02330000
N        1.52030000      -0.52410000       0.01950000
C        0.67800000      -0.64230000       1.20260000
C        1.01080000      -0.04770000       2.56200000
O        0.56000000      -1.25300000       3.21900000
C        0.24980000      -1.91730000       1.95620000
C       -1.22910000      -2.27600000       1.89050000
C        1.15250000      -3.12850000       1.75120000
H        0.69070000       2.00260000       0.38700000
H        0.02240000       1.75140000      -1.23120000
H       -1.05680000       1.76360000       0.17440000
H       -0.59060000      -0.64600000      -0.57410000
H        1.60260000      -1.42210000      -0.45270000
H        2.07710000       0.14750000       2.72970000
H        0.42920000       0.83070000       2.86930000
H       -1.84950000      -1.39100000       2.05360000
H       -1.48780000      -2.70880000       0.91790000
H       -1.47150000      -3.01250000       2.66360000
H        0.95450000      -3.87620000       2.52560000
H        0.97030000      -3.59800000       0.77760000
H        2.20630000      -2.84360000       1.80970000
