17
Properties=species:S:1:pos:R:3 gdb_36261=T pbc="F F F"
N        0.00730000      -1.23130000      -0.01320000
C       -0.01910000      -0.07880000      -0.08540000
C       -0.05860000       1.38540000      -0.15000000
N        1.29170000       1.94280000      -0.04450000
C        1.86700000       1.99990000       1.33870000
C        2.73900000       3.23790000       0.96960000
C        2.30010000       4.01630000       2.22460000
C        1.02860000       3.24420000       1.82000000
C        1.34840000       3.40350000       0.28580000
H       -0.48090000       1.67850000      -1.11840000
H       -0.75770000       1.73820000       0.62780000
H        2.15510000       1.11010000       1.89900000
H        3.69740000       3.20550000       0.45390000
H        2.76810000       3.72560000       3.16920000
H        2.25990000       5.10570000       2.13740000
H        0.05340000       3.24890000       2.30650000
H        1.02120000       4.18310000      -0.40420000
