20
Properties=species:S:1:pos:R:3 gdb_47419=T pbc="F F F"
N       -0.41660000       1.25290000      -0.38810000
C       -0.22720000       0.01170000      -0.25530000
O        1.00310000      -0.58320000      -0.19620000
C        0.86930000      -2.00580000      -0.03760000
C       -0.55890000      -2.33340000      -0.49150000
C       -1.31910000      -1.04100000      -0.13320000
C       -1.91570000      -1.06070000       1.26550000
C       -2.97040000      -0.06040000       1.64740000
C       -3.34210000      -1.51240000       1.46660000
H        0.47550000       1.74970000      -0.42630000
H        1.64630000      -2.48420000      -0.63850000
H        1.03780000      -2.26300000       1.01570000
H       -0.57760000      -2.50130000      -1.57240000
H       -0.96490000      -3.21990000       0.00020000
H       -2.11200000      -0.81280000      -0.84920000
H       -1.21250000      -1.33570000       2.04840000
H       -2.95210000       0.34580000       2.65230000
H       -3.28030000       0.64960000       0.88900000
H       -3.91520000      -1.78490000       0.58600000
H       -3.57830000      -2.10020000       2.34680000
