20
Properties=species:S:1:pos:R:3 gdb_62992=T pbc="F F F"
C        0.01620000       1.57070000      -0.09090000
C        0.06730000       0.04430000      -0.02440000
C       -1.31570000      -0.53240000       0.28080000
C        0.74020000      -0.68310000      -1.19920000
C        2.18390000      -0.41170000      -1.30380000
N        1.73920000      -1.40750000      -0.30710000
C        1.19140000      -0.64410000       0.85610000
C        2.11960000       0.22700000       1.66060000
O        3.28430000       0.43070000       1.42890000
H        0.99760000       2.01250000      -0.28170000
H       -0.65470000       1.88970000      -0.89630000
H       -0.36740000       1.99490000       0.84380000
H       -2.04050000      -0.21830000      -0.47900000
H       -1.29620000      -1.62650000       0.29560000
H       -1.68110000      -0.18350000       1.25280000
H        0.18880000      -1.21760000      -1.96760000
H        2.71200000      -0.87630000      -2.13080000
H        2.61330000       0.52480000      -0.96860000
H        0.73530000      -1.34660000       1.56460000
H        1.61930000       0.69670000       2.54110000
