18
Properties=species:S:1:pos:R:3 gdb_33094=T pbc="F F F"
C        0.00310000       1.48040000      -0.00810000
C       -0.00440000      -0.03750000       0.00160000
O        0.68050000      -0.47500000      -1.17320000
C        0.77830000      -1.80800000      -1.35110000
C        1.40320000      -2.42450000      -2.39990000
N        1.24810000      -3.78980000      -2.13130000
C        0.55320000      -3.89790000      -0.97340000
N        0.14710000      -5.12870000      -0.45760000
N        0.25830000      -2.71930000      -0.46230000
H        1.02760000       1.86360000      -0.00580000
H       -0.50400000       1.86520000      -0.89770000
H       -0.51240000       1.86380000       0.87770000
H        0.49650000      -0.43550000       0.89250000
H       -1.02710000      -0.43330000       0.00370000
H        1.94250000      -2.05610000      -3.25310000
H        1.47950000      -4.54470000      -2.75310000
H        0.91010000      -5.78410000      -0.33090000
H       -0.32210000      -4.98220000       0.42740000
