20
Properties=species:S:1:pos:R:3 gdb_61449=T pbc="F F F"
C       -0.18280000       1.80480000      -0.18930000
C        0.02680000       0.28920000      -0.07180000
C       -1.29720000      -0.47600000       0.07090000
C       -1.99160000      -0.22950000       1.40980000
N       -3.29850000      -0.62900000       1.45330000
O       -1.43890000       0.27850000       2.36700000
C        0.79560000      -0.23740000      -1.26480000
C        2.23870000      -0.49950000      -1.21830000
O        1.29630000      -1.57410000      -1.16770000
H        0.77470000       2.32760000      -0.27970000
H       -0.78330000       2.05510000      -1.07250000
H       -0.69600000       2.18470000       0.69630000
H        0.61290000       0.08530000       0.83040000
H       -1.98280000      -0.22940000      -0.75070000
H       -1.09580000      -1.55260000      -0.00340000
H       -3.71040000      -1.16940000       0.71240000
H       -3.76410000      -0.61150000       2.34630000
H        0.35800000      -0.00600000      -2.23970000
H        2.83500000      -0.44360000      -2.12800000
H        2.78420000      -0.31510000      -0.29360000
