20
Properties=species:S:1:pos:R:3 gdb_95678=T pbc="F F F"
C        0.93040000       1.56970000      -0.00180000
C        0.08200000       0.30620000       0.02350000
C        0.22940000      -0.53040000      -1.25040000
C       -0.60620000      -1.82490000      -1.26220000
C       -0.05270000      -2.93280000      -0.39860000
N        0.31360000      -4.02980000      -0.91570000
O        0.06090000      -2.72820000       0.94990000
C       -0.33150000      -1.49340000       1.53930000
O        0.47450000      -0.41980000       1.19440000
H        1.99030000       1.31480000      -0.09710000
H        0.64860000       2.20520000      -0.84610000
H        0.79640000       2.13650000       0.92290000
H       -0.98060000       0.58260000       0.13590000
H       -0.08310000       0.09090000      -2.09750000
H        1.28720000      -0.77360000      -1.40460000
H       -1.63990000      -1.59990000      -0.96600000
H       -0.64510000      -2.23430000      -2.27210000
H        0.66620000      -4.65520000      -0.18730000
H       -1.38870000      -1.28600000       1.31420000
H       -0.20670000      -1.66550000       2.61010000
