12
Properties=species:S:1:pos:R:3 gdb_14658=T pbc="F F F"
O        0.01200000       1.45900000       0.00980000
C        0.00530000       0.03920000       0.00240000
C       -1.36620000      -0.44530000       0.01280000
C       -2.49670000      -0.88260000       0.02110000
C       -3.75820000      -1.36620000       0.03050000
C       -4.89600000      -1.80200000       0.03900000
C       -6.15890000      -2.28690000       0.04860000
C       -7.28820000      -2.72030000       0.05740000
H        0.93230000       1.74230000       0.00260000
H        0.51390000      -0.36350000      -0.88950000
H        0.53070000      -0.37280000       0.88020000
H       -8.27960000      -3.10050000       0.06510000
