17
Properties=species:S:1:pos:R:3 gdb_13317=T pbc="F F F"
N       -0.27470000      -1.05200000       0.27990000
C       -0.14110000       0.09530000       0.23800000
C        0.06020000       1.54150000       0.17570000
C        1.51420000       1.92660000      -0.18020000
C        1.67490000       3.46820000      -0.27220000
C        2.42590000       3.83930000       1.03380000
O        2.39440000       2.67790000       1.85320000
C        2.48150000       1.57600000       0.96550000
H       -0.63570000       1.95710000      -0.56120000
H       -0.20050000       1.97630000       1.14770000
H        1.79590000       1.43020000      -1.11170000
H        2.24760000       3.75730000      -1.15630000
H        0.70420000       3.96740000      -0.33770000
H        3.46690000       4.12120000       0.81310000
H        1.96160000       4.65560000       1.59220000
H        2.21370000       0.66950000       1.51370000
H        3.50730000       1.46130000       0.57870000
