14
Properties=species:S:1:pos:R:3 gdb_43962=T pbc="F F F"
O       -0.00680000       0.00970000      -0.12720000
C        0.00530000       1.18920000       0.04920000
C       -1.14290000       2.25970000       0.14160000
C       -0.05940000       3.32800000      -0.03080000
C        0.97710000       3.31530000       1.02910000
C        1.07150000       2.26530000      -0.06760000
N        1.87230000       2.57140000      -1.22510000
C        1.30340000       3.58260000      -1.75460000
O        0.15690000       4.10590000      -1.18690000
H       -1.78610000       2.15640000      -0.73680000
H       -1.76050000       2.30970000       1.04190000
H        1.75410000       4.06930000       0.97780000
H        0.69320000       3.01650000       2.03210000
H        1.63740000       4.11000000      -2.64010000
