21
Properties=species:S:1:pos:R:3 gdb_105400=T pbc="F F F"
C        0.76360000       1.02970000       0.42900000
O        0.02150000      -0.06880000      -0.07370000
C        0.49860000      -0.60320000      -1.27790000
C        0.27360000       0.29580000      -2.48230000
C       -1.18040000       0.71580000      -2.58380000
O       -1.55370000       1.85040000      -2.73010000
C        1.71630000      -1.49670000      -1.21220000
C        0.33620000      -2.09680000      -1.40990000
C       -0.30980000      -2.91890000      -0.31730000
H        1.83020000       0.78430000       0.52480000
H        0.66050000       1.92180000      -0.20270000
H        0.35760000       1.25510000       1.41760000
H        0.89400000       1.19710000      -2.45540000
H        0.53380000      -0.25670000      -3.39470000
H       -1.90630000      -0.12610000      -2.51380000
H        2.42170000      -1.49410000      -2.03640000
H        2.16500000      -1.62490000      -0.23240000
H        0.12270000      -2.44310000      -2.41850000
H       -0.12490000      -2.47640000       0.66340000
H       -1.39480000      -2.97570000      -0.45560000
H        0.08290000      -3.94120000      -0.31810000
