18
Properties=species:S:1:pos:R:3 gdb_86039=T pbc="F F F"
O       -0.95580000       1.09680000       0.79540000
C       -0.15980000       0.14830000       0.10030000
C        0.55680000      -0.86870000       1.03430000
C       -0.63450000      -1.83960000       0.84450000
O       -0.21640000      -3.16190000       0.62010000
C       -1.64440000      -1.76310000       2.01260000
C       -2.82020000      -2.58420000       1.73360000
N       -3.71450000      -3.26410000       1.45970000
C       -1.06970000      -0.99750000      -0.39700000
H       -0.36470000       1.70990000       1.24510000
H        0.46650000       0.64050000      -0.65240000
H        1.45230000      -1.29230000       0.57400000
H        0.78910000      -0.53530000       2.04990000
H       -0.99310000      -3.70240000       0.42740000
H       -1.16600000      -2.13050000       2.92720000
H       -1.94560000      -0.72380000       2.17190000
H       -2.12720000      -0.75170000      -0.51430000
H       -0.68840000      -1.45460000      -1.31210000
