24
Properties=species:S:1:pos:R:3 gdb_99272=T pbc="F F F"
C        0.09840000       1.49510000       0.09250000
N        0.34710000       0.06950000       0.01250000
C        0.30410000      -0.62190000      -1.16470000
O        0.07720000      -0.08760000      -2.23690000
C        0.53820000      -2.12690000      -1.03530000
C        1.36600000      -2.67550000      -2.20370000
C        1.39940000      -4.20940000      -2.30780000
C        2.10610000      -4.63640000      -3.60170000
C        2.05900000      -4.87240000      -1.08980000
H        0.96580000       2.03090000       0.49440000
H       -0.09750000       1.84490000      -0.92170000
H       -0.77120000       1.71630000       0.72190000
H        0.54200000      -0.43640000       0.85970000
H        0.99780000      -2.36430000      -0.06950000
H       -0.45270000      -2.60200000      -1.03640000
H        0.95000000      -2.25190000      -3.12300000
H        2.39460000      -2.29540000      -2.12990000
H        0.35830000      -4.56140000      -2.36120000
H        3.15270000      -4.30840000      -3.60180000
H        2.10070000      -5.72540000      -3.71710000
H        1.62210000      -4.20080000      -4.48180000
H        2.08430000      -5.96140000      -1.20230000
H        3.09400000      -4.52810000      -0.97250000
H        1.52660000      -4.65170000      -0.15930000
