16
Properties=species:S:1:pos:R:3 gdb_41625=T pbc="F F F"
C        0.05070000       1.50220000      -0.18090000
O        1.44130000       1.52380000       0.23040000
C        1.38580000       0.16340000       0.68920000
C       -0.01600000      -0.03120000      -0.04350000
N        0.25530000      -0.66330000      -1.35150000
C        1.46610000      -1.01490000      -1.27250000
O        2.48960000      -1.16220000      -2.16390000
C        3.39480000      -0.60720000      -1.11620000
C        2.28970000      -0.82130000      -0.04190000
H       -0.58390000       2.04680000       0.53040000
H       -0.08690000       1.89590000      -1.19150000
H        1.41120000       0.09560000       1.78160000
H       -0.87010000      -0.46270000       0.48070000
H        4.29670000      -1.21240000      -1.02620000
H        3.61680000       0.43610000      -1.34450000
H        2.46500000      -1.73050000       0.53840000
