21
Properties=species:S:1:pos:R:3 gdb_102089=T pbc="F F F"
C        0.13580000       1.52230000       0.23710000
C        0.22760000      -0.00360000       0.13550000
C        0.62140000      -0.50880000      -1.27550000
C        2.01250000       0.00900000      -1.59690000
O        2.26170000       0.82940000      -2.44360000
C        0.55260000      -2.03810000      -1.36510000
C       -0.82860000      -2.65200000      -1.26790000
C        1.60720000      -2.79670000      -2.05880000
O        1.57370000      -2.73140000      -0.62920000
H        1.08870000       2.00690000       0.00340000
H       -0.61110000       1.91970000      -0.45840000
H       -0.15320000       1.82390000       1.24820000
H        0.95540000      -0.39170000       0.85820000
H       -0.73760000      -0.44050000       0.41010000
H       -0.05950000      -0.08250000      -2.02180000
H        2.81240000      -0.41430000      -0.94930000
H       -1.47530000      -2.27420000      -2.06680000
H       -0.76310000      -3.73900000      -1.35790000
H       -1.30490000      -2.42410000      -0.31030000
H        1.37130000      -3.77050000      -2.48570000
H        2.44160000      -2.28240000      -2.53390000
