15
Properties=species:S:1:pos:R:3 gdb_44782=T pbc="F F F"
O        0.11160000       0.10340000       0.09460000
C        0.00300000       1.29290000       0.02110000
C       -1.24530000       2.18780000       0.06130000
C       -0.48170000       3.49400000      -0.07760000
O        0.62410000       3.31250000       0.94120000
C        1.13350000       2.34030000      -0.10860000
C        2.18730000       1.88240000      -1.14780000
O        1.18520000       2.32580000      -2.16490000
C        0.68430000       3.27100000      -1.13070000
H       -1.93500000       1.96150000      -0.75690000
H       -1.77360000       2.11420000       1.01400000
H       -0.98750000       4.45240000       0.02500000
H        3.10050000       2.47810000      -1.21690000
H        2.37320000       0.80870000      -1.20750000
H        1.26620000       4.19340000      -1.19750000
