22
Properties=species:S:1:pos:R:3 gdb_59097=T pbc="F F F"
C       -0.18470000       1.37030000       0.09970000
C        0.11960000      -0.12120000      -0.11060000
C        0.89010000      -0.37200000      -1.41310000
N        0.84770000      -0.67410000       1.02540000
C        0.37370000      -1.33410000       2.25840000
C       -0.21810000      -2.72220000       2.06660000
C        1.83590000      -1.23520000       2.78340000
C        2.13750000      -0.49160000       1.46410000
O        3.09000000       0.06550000       0.97640000
H        0.74730000       1.94040000       0.15740000
H       -0.78010000       1.76380000      -0.73030000
H       -0.74470000       1.53180000       1.02600000
H       -0.82950000      -0.67070000      -0.15420000
H        1.86850000       0.11230000      -1.37310000
H        1.04560000      -1.44290000      -1.57150000
H        0.33170000       0.02710000      -2.26520000
H       -0.32020000      -0.70000000       2.82630000
H        0.48250000      -3.37210000       1.53250000
H       -0.44550000      -3.17720000       3.03610000
H       -1.15080000      -2.68190000       1.49350000
H        1.98190000      -0.63340000       3.68220000
H        2.35260000      -2.19110000       2.89360000
