18
Properties=species:S:1:pos:R:3 gdb_65995=T pbc="F F F"
C       -0.12520000       1.66990000       0.30910000
C       -0.04820000       0.16960000       0.06040000
O        0.82280000      -0.16920000      -1.06350000
C        1.77110000      -0.89810000      -0.25240000
C        0.92620000      -0.59070000       0.98720000
O        0.99110000      -0.81360000       2.15580000
C       -1.41850000      -0.46730000      -0.08280000
C       -2.11030000      -0.43790000      -1.39350000
N       -1.58890000      -1.70630000      -0.84740000
H        0.87140000       2.10030000       0.43900000
H       -0.61250000       2.16320000      -0.53660000
H       -0.70910000       1.86890000       1.21290000
H        1.84190000      -1.95960000      -0.52050000
H        2.77260000      -0.45150000      -0.26410000
H       -2.00800000      -0.41890000       0.83030000
H       -3.19270000      -0.36090000      -1.43560000
H       -1.58010000       0.00870000      -2.22990000
H       -0.71240000      -1.90470000      -1.32810000
