16
Properties=species:S:1:pos:R:3 gdb_22900=T pbc="F F F"
C        0.12190000       1.47480000      -0.12280000
C       -0.08910000      -0.01980000       0.12930000
O        0.33650000      -0.80900000      -0.99430000
C        1.64160000      -1.31380000      -0.77990000
C        1.85940000      -1.34750000       0.73260000
O        2.76460000      -1.88500000       1.31650000
C        0.71760000      -0.54930000       1.29400000
N        0.39180000      -0.28400000       2.50100000
O        1.23010000      -0.83920000       3.44160000
H        1.18280000       1.70840000      -0.25800000
H       -0.41840000       1.77930000      -1.02310000
H       -0.24970000       2.05220000       0.72880000
H       -1.15610000      -0.22120000       0.26720000
H        1.72060000      -2.31630000      -1.21170000
H        2.41710000      -0.68260000      -1.24380000
H        0.83280000      -0.54940000       4.27180000
