21
Properties=species:S:1:pos:R:3 gdb_76815=T pbc="F F F"
C       -0.59370000       1.48880000       0.46490000
C       -0.21450000       0.04070000       0.18310000
C        0.25360000      -0.55900000      -1.21820000
N        1.18150000      -0.16940000      -2.46340000
C        1.90790000       0.73320000      -1.46980000
C        1.61100000      -0.53950000      -0.61710000
C        2.09220000      -1.30780000      -1.89860000
N        1.11400000      -0.50280000       0.75450000
C        1.84560000       0.23150000       1.76980000
H        0.18470000       2.21230000       0.22090000
H       -1.48820000       1.74460000      -0.11170000
H       -0.83910000       1.61260000       1.52560000
H       -1.03730000      -0.59140000       0.53490000
H       -0.23680000      -1.51220000      -1.41630000
H        2.94710000       0.93320000      -1.74450000
H        1.37340000       1.66030000      -1.27210000
H        1.69670000      -2.31220000      -2.06290000
H        3.12710000      -1.20950000      -2.24040000
H        2.13500000       1.25380000       1.47120000
H        1.24880000       0.29940000       2.68500000
H        2.76050000      -0.31840000       2.01410000
