17
Properties=species:S:1:pos:R:3 gdb_106661=T pbc="F F F"
O        0.24390000       1.30790000      -0.11350000
C        0.04650000      -0.06880000       0.18430000
C       -1.39300000      -0.47890000       0.11690000
C       -2.08500000      -0.91570000      -1.14150000
C       -1.98920000      -1.96110000      -0.07160000
O       -1.41670000      -3.17080000      -0.34500000
C       -2.82450000      -1.67410000       1.12260000
O       -3.26740000      -2.43190000       1.94780000
C       -2.46210000      -0.16750000       1.17190000
H       -0.07660000       1.46120000      -1.00870000
H        0.64120000      -0.71640000      -0.47860000
H        0.42980000      -0.20040000       1.20190000
H       -3.04330000      -0.48920000      -1.43010000
H       -1.43020000      -1.14570000      -1.97900000
H       -1.39780000      -3.66960000       0.48290000
H       -2.07110000       0.10400000       2.15590000
H       -3.23790000       0.54540000       0.87920000
