16
Properties=species:S:1:pos:R:3 gdb_73604=T pbc="F F F"
C        0.04820000       1.58020000      -0.06000000
C        0.01070000       0.09330000       0.13320000
O       -1.26430000      -0.45950000      -0.03110000
C       -1.34790000      -1.65070000       0.74260000
O       -0.22410000      -1.68040000       1.62070000
C        0.67510000      -0.71480000       1.18510000
C        1.21370000      -0.80130000      -0.26070000
C        1.06600000      -1.97830000      -1.05830000
N        0.94050000      -2.93000000      -1.70520000
H        1.05220000       1.97030000       0.12520000
H       -0.23780000       1.84000000      -1.08350000
H       -0.65030000       2.06570000       0.62780000
H       -2.26930000      -1.63540000       1.33560000
H       -1.32470000      -2.52570000       0.08360000
H        1.31690000      -0.33510000       1.97060000
H        2.14070000      -0.25990000      -0.42580000
