19
Properties=species:S:1:pos:R:3 gdb_122926=T pbc="F F F"
O       -1.65500000       1.63920000       0.41590000
C       -0.59650000       0.75660000       0.10700000
C       -1.12670000      -0.60580000      -0.31340000
O       -1.94370000      -0.37750000      -1.44950000
C       -2.77580000      -1.45090000      -1.81100000
C       -3.73700000      -0.96380000      -2.90860000
O       -4.49910000      -2.05410000      -3.41110000
C       -4.58340000       0.13220000      -2.43160000
C       -5.31300000       0.99140000      -2.01300000
H       -2.27900000       1.56460000      -0.31710000
H        0.04280000       1.15550000      -0.69710000
H        0.02000000       0.65350000       1.00610000
H       -0.30490000      -1.30030000      -0.55010000
H       -1.72650000      -1.04060000       0.50100000
H       -2.19800000      -2.29790000      -2.21030000
H       -3.35750000      -1.81080000      -0.94670000
H       -3.13090000      -0.61080000      -3.75090000
H       -5.22330000      -2.21230000      -2.79560000
H       -5.95330000       1.76210000      -1.65960000
