17
Properties=species:S:1:pos:R:3 gdb_36297=T pbc="F F F"
N       -0.35080000      -0.46760000       1.84900000
C       -0.21670000       0.35210000       1.04540000
C       -0.04460000       1.39410000       0.03130000
C        1.33860000       2.02610000       0.07440000
C        1.57980000       3.47710000      -0.21540000
C        0.42500000       4.41140000      -0.11660000
C       -0.05080000       4.42590000       1.13030000
C        0.76260000       3.50890000       2.01630000
N        1.80500000       2.91640000       1.14290000
H       -0.19530000       0.94080000      -0.95550000
H       -0.83030000       2.14360000       0.16060000
H        2.11960000       1.33160000      -0.22980000
H        2.45370000       3.76280000      -0.79640000
H        0.05280000       4.98670000      -0.95510000
H       -0.90460000       4.99190000       1.48460000
H        1.25670000       4.05680000       2.82860000
H        0.16240000       2.72310000       2.49290000
