14
Properties=species:S:1:pos:R:3 gdb_109105=T pbc="F F F"
O       -0.03550000       1.45740000       0.00790000
C        0.02330000       0.04060000       0.00130000
C       -1.37360000      -0.48340000       0.01180000
C       -2.51720000       0.23690000       0.02370000
N       -3.66600000      -0.55370000       0.03130000
C       -3.33040000      -1.89950000       0.02470000
O       -4.07750000      -2.83950000       0.02860000
C       -1.75240000      -1.89500000       0.01110000
O       -1.07020000      -2.89180000       0.00250000
H        0.86390000       1.79650000       0.00230000
H        0.55270000      -0.34010000      -0.88740000
H        0.56880000      -0.34780000       0.87680000
H       -2.60600000       1.31390000       0.02770000
H       -4.61120000      -0.20960000       0.04070000
