18
Properties=species:S:1:pos:R:3 gdb_18029=T pbc="F F F"
C        0.00230000       1.55510000      -0.07240000
C        1.56670000       1.49310000       0.04860000
C        1.37090000       0.09400000       0.59060000
C        1.83510000      -0.67180000       1.56670000
C        0.99290000      -1.83220000       2.04200000
O       -0.23550000      -1.98900000       1.34670000
C       -0.90330000      -0.77170000       1.02570000
C       -0.03360000      -0.00390000       0.03870000
H       -0.44660000       2.03320000       0.80250000
H       -0.41210000       2.00270000      -0.97820000
H        2.04420000       1.50760000      -0.93770000
H        2.06510000       2.22670000       0.68760000
H        2.75160000      -0.45930000       2.11130000
H        1.51890000      -2.78790000       1.92390000
H        0.80350000      -1.70830000       3.12450000
H       -1.87620000      -1.06610000       0.62160000
H       -1.07230000      -0.16450000       1.93030000
H       -0.07560000      -0.46990000      -0.95250000
