19
Properties=species:S:1:pos:R:3 gdb_86491=T pbc="F F F"
C       -0.55090000       1.36700000      -0.08050000
C       -0.00740000      -0.05560000      -0.02170000
C        1.28070000      -0.31040000      -0.85730000
C        2.11620000      -0.47400000       0.47550000
C        0.77870000      -0.41270000       1.27340000
C        2.85230000      -1.78870000       0.54960000
O        4.02760000      -1.91790000       0.78000000
C        3.05140000       0.69740000       0.69060000
O        2.79390000       1.65810000       1.37120000
H        0.22640000       2.09470000       0.17420000
H       -0.92780000       1.60440000      -1.08150000
H       -1.37530000       1.49820000       0.62870000
H       -0.80600000      -0.76620000      -0.25260000
H        1.25850000      -1.22910000      -1.45080000
H        1.60980000       0.50760000      -1.50440000
H        0.79000000       0.35600000       2.04830000
H        0.49930000      -1.37120000       1.71870000
H        2.20020000      -2.67510000       0.36600000
H        4.00570000       0.62700000       0.13000000
