13
Properties=species:S:1:pos:R:3 gdb_10250=T pbc="F F F"
N       -0.04380000       1.24710000      -0.48560000
C        0.04260000      -0.01640000       0.05680000
N        1.12970000      -0.46200000       0.54230000
N       -1.20980000      -0.72060000       0.03270000
C       -1.18050000      -2.07990000      -0.36430000
O       -2.10990000      -2.83220000      -0.35170000
C       -2.38940000      -0.05210000       0.44920000
O       -3.49050000      -0.51990000       0.44060000
H        0.84610000       1.72320000      -0.52740000
H       -0.61950000       1.35720000      -1.30730000
H        0.99090000      -1.32960000       1.05400000
H       -0.16520000      -2.35340000      -0.70410000
H       -2.15080000       0.96940000       0.79080000
