16
Properties=species:S:1:pos:R:3 gdb_74570=T pbc="F F F"
C        0.00260000       1.46940000       0.02900000
C        0.03090000      -0.01170000      -0.09840000
N       -0.05230000      -0.69910000      -1.17140000
C       -0.00900000      -2.08400000      -0.77340000
C        0.11460000      -2.07020000       0.72230000
O        0.14940000      -0.70350000       1.07980000
C       -1.16630000      -2.61260000       0.09760000
C       -2.48770000      -1.95050000       0.18990000
O       -3.51270000      -2.55570000       0.39750000
H        0.86720000       1.81620000       0.60270000
H        0.00930000       1.91950000      -0.96300000
H       -0.89600000       1.79060000       0.56590000
H        0.47710000      -2.77690000      -1.44860000
H        0.72580000      -2.69570000       1.35910000
H       -1.23050000      -3.69510000       0.14270000
H       -2.49540000      -0.85180000       0.04510000
