15
Properties=species:S:1:pos:R:3 gdb_131386=T pbc="F F F"
O        0.36780000       1.33860000      -0.06880000
C        0.16820000       0.00470000      -0.01150000
N        0.20090000      -0.75970000      -1.09150000
N       -0.04160000      -2.00500000      -0.60750000
C       -0.21820000      -2.02630000       0.73120000
C       -0.09570000      -0.72270000       1.17450000
C       -0.19510000      -0.21440000       2.55460000
C       -1.38930000      -0.41860000       3.39640000
O       -0.21150000      -1.20150000       3.59310000
H        0.55140000       1.56040000      -0.99030000
H       -0.04130000      -2.78120000      -1.24490000
H       -0.39610000      -2.93730000       1.27950000
H        0.42000000       0.65880000       2.77160000
H       -1.61950000       0.28800000       4.19320000
H       -2.24160000      -0.95180000       2.97840000
