23
Properties=species:S:1:pos:R:3 gdb_112917=T pbc="F F F"
C        0.74170000       1.11370000       0.38320000
O        0.65240000      -0.28490000       0.19350000
C        0.51610000      -0.66240000      -1.15530000
O        1.65740000      -0.33750000      -1.91520000
C        2.57180000      -1.45710000      -1.95340000
C        3.93080000      -1.03780000      -1.41170000
C        1.88000000      -2.58810000      -1.17330000
C        0.39510000      -2.19020000      -1.22620000
C       -0.50410000      -2.83310000      -0.17490000
H        1.61480000       1.53370000      -0.12970000
H       -0.16060000       1.62520000       0.01350000
H        0.83170000       1.28830000       1.45780000
H       -0.32900000      -0.11850000      -1.60410000
H        2.67540000      -1.73820000      -3.01100000
H        3.84760000      -0.74680000      -0.36010000
H        4.64610000      -1.86390000      -1.48980000
H        4.32630000      -0.18850000      -1.97630000
H        2.07710000      -3.57120000      -1.60790000
H        2.22310000      -2.60040000      -0.13310000
H        0.00800000      -2.41980000      -2.22720000
H       -0.15450000      -2.59660000       0.83250000
H       -1.53550000      -2.47600000      -0.26440000
H       -0.51830000      -3.92160000      -0.29200000
