17
Properties=species:S:1:pos:R:3 gdb_86130=T pbc="F F F"
C       -0.00910000       1.70450000       0.10300000
C        0.14770000       0.19900000      -0.01770000
O        1.14880000      -0.12160000      -0.98870000
C        1.68590000      -1.42290000      -0.73170000
C        3.07590000      -1.54890000      -1.32960000
C        1.64270000      -1.55790000       0.78400000
O        2.24220000      -2.32330000       1.48750000
C        0.62360000      -0.48390000       1.25680000
O        0.29430000      -0.27100000       2.39100000
H        0.94740000       2.16610000       0.36190000
H       -0.35860000       2.12910000      -0.84080000
H       -0.73300000       1.93240000       0.88960000
H       -0.81660000      -0.26100000      -0.30420000
H        1.01890000      -2.19670000      -1.15580000
H        3.73240000      -0.77090000      -0.93120000
H        3.49410000      -2.52580000      -1.07390000
H        3.03460000      -1.44920000      -2.41660000
