18
Properties=species:S:1:pos:R:3 gdb_57860=T pbc="F F F"
C        0.11880000       1.43550000       0.03070000
N        0.06290000      -0.02040000      -0.01970000
C        0.26320000      -0.68870000       1.25540000
C       -0.05300000      -0.62820000      -1.23080000
O       -0.17240000      -0.02360000      -2.28190000
C       -0.04360000      -2.19860000      -1.28630000
N       -0.42030000      -2.71000000      -2.59480000
C        1.29710000      -2.68510000      -0.91740000
N        2.35570000      -3.02830000      -0.60530000
H        1.09150000       1.76810000       0.41300000
H       -0.02870000       1.82380000      -0.97480000
H       -0.66320000       1.82050000       0.69520000
H        0.08080000      -1.75890000       1.18960000
H        1.28880000      -0.54580000       1.61760000
H       -0.42550000      -0.27090000       1.99860000
H       -0.74720000      -2.59510000      -0.54680000
H       -1.42660000      -2.61480000      -2.69560000
H       -0.02540000      -2.07900000      -3.29000000
