15
Properties=species:S:1:pos:R:3 gdb_2661=T pbc="F F F"
C        0.01290000       1.45030000      -0.45600000
C       -0.00310000       0.12790000       0.33230000
C       -1.33230000      -0.46640000       0.43040000
C       -2.44290000      -0.92550000       0.51180000
C       -3.75990000      -1.54220000       0.58080000
C       -3.84350000      -2.82540000      -0.24860000
O       -4.45440000      -3.80140000       0.09150000
H        1.02870000       1.85370000      -0.50230000
H       -0.34430000       1.29800000      -1.47810000
H       -0.63220000       2.19390000       0.01950000
H        0.68000000      -0.58970000      -0.13990000
H        0.39190000       0.29700000       1.34220000
H       -4.06100000      -1.77880000       1.60670000
H       -4.52210000      -0.85790000       0.17600000
H       -3.29540000      -2.77870000      -1.21480000
