16
Properties=species:S:1:pos:R:3 gdb_30295=T pbc="F F F"
O       -0.39830000       1.45660000      -0.34640000
C        0.04230000       0.13100000      -0.04910000
C       -1.22050000      -0.77830000       0.12440000
C       -1.39710000      -1.67170000      -1.15940000
C       -0.06380000      -1.46610000      -1.78000000
C        0.71870000      -0.53650000      -1.20590000
N        1.90230000      -0.40730000      -1.92070000
C        1.75810000      -1.27080000      -2.87620000
O        0.57700000      -1.96690000      -2.86910000
H        0.37200000       1.96120000      -0.62940000
H        0.64790000       0.14040000       0.86790000
H       -1.08280000      -1.42410000       0.99490000
H       -2.09190000      -0.14780000       0.30970000
H       -1.61570000      -2.71260000      -0.90090000
H       -2.21240000      -1.32020000      -1.80250000
H        2.44740000      -1.51680000      -3.66860000
