16
Properties=species:S:1:pos:R:3 gdb_51151=T pbc="F F F"
O        0.28710000      -0.23370000      -0.10000000
C        0.09450000       0.95290000      -0.13340000
C        1.19330000       1.99860000       0.00650000
C        1.18950000       2.94070000      -1.16770000
C        1.97450000       2.73900000      -2.42470000
N        2.34340000       3.87170000      -1.58300000
C        1.34910000       4.94970000      -1.93770000
C        0.21640000       4.06100000      -1.38830000
O       -0.90720000       4.25120000      -1.01840000
H       -0.92400000       1.37650000      -0.26890000
H        0.99560000       2.56820000       0.92510000
H        2.15680000       1.49310000       0.10650000
H        2.69050000       1.92230000      -2.40420000
H        1.51820000       2.92130000      -3.39560000
H        1.49290000       5.84080000      -1.32130000
H        1.34300000       5.22640000      -2.99540000
