22
Properties=species:S:1:pos:R:3 gdb_70423=T pbc="F F F"
C        0.04630000       1.54700000       0.14430000
C       -0.01720000       0.05630000      -0.01370000
C       -0.91080000      -0.81110000       0.78500000
N        0.54340000      -0.90980000       1.02450000
C        1.06000000      -1.75270000      -0.10910000
C        0.56870000      -0.74180000      -1.18000000
C       -0.23140000      -1.20550000      -2.42680000
C        1.05460000      -1.02490000      -3.27750000
C        1.63700000      -0.14820000      -2.13610000
H        1.04820000       1.93140000      -0.07350000
H       -0.65980000       2.04440000      -0.53170000
H       -0.20900000       1.83400000       1.16850000
H       -1.44670000      -0.35230000       1.61100000
H       -1.42710000      -1.65160000       0.32420000
H        2.14850000      -1.83380000      -0.04910000
H        0.62690000      -2.75990000      -0.13710000
H       -0.68390000      -2.20020000      -2.39060000
H       -1.00750000      -0.48170000      -2.69680000
H        1.60310000      -1.96380000      -3.39280000
H        0.94900000      -0.56400000      -4.26190000
H        1.46550000       0.91710000      -2.32130000
H        2.68720000      -0.28620000      -1.86360000
