18
Properties=species:S:1:pos:R:3 gdb_71692=T pbc="F F F"
C       -0.00240000       1.49260000       0.00630000
C        0.04950000      -0.00100000       0.02520000
C        0.37320000      -1.02570000      -1.01070000
C        1.02640000      -1.93590000       0.05370000
C        0.69290000      -0.90170000       1.12160000
C       -0.10390000      -2.17620000       1.04310000
O        0.00900000      -3.09110000       2.07870000
C       -1.42220000      -1.87450000       0.34520000
N       -1.03440000      -0.81050000      -0.58100000
H        0.99920000       1.92330000       0.11200000
H       -0.43440000       1.84290000      -0.93490000
H       -0.62070000       1.87530000       0.82710000
H        0.62440000      -0.93980000      -2.06100000
H        1.90100000      -2.56350000      -0.03970000
H        1.26590000      -0.59810000       1.98610000
H       -0.06370000      -3.97680000       1.70640000
H       -1.81980000      -2.73240000      -0.20950000
H       -2.18760000      -1.51400000       1.03970000
