17
Properties=species:S:1:pos:R:3 gdb_30973=T pbc="F F F"
C        0.16440000       1.21110000      -0.30710000
O       -0.45160000       0.22120000       0.52700000
C        0.40490000      -0.52400000       1.24970000
C        0.70510000      -1.82450000       1.15720000
C        0.28910000      -2.90290000       0.23450000
O        1.60510000      -2.14040000       2.18160000
C        1.84520000      -1.00510000       2.92740000
N        2.54860000      -0.91080000       3.97600000
N        1.16280000       0.02500000       2.30150000
H        0.73310000       1.93530000       0.28690000
H        0.83440000       0.73940000      -1.03500000
H       -0.64760000       1.72240000      -0.82590000
H        1.14360000      -3.32610000      -0.30660000
H       -0.19740000      -3.72460000       0.77320000
H       -0.41990000      -2.50080000      -0.49280000
H        2.92910000      -1.81860000       4.23110000
H        0.89310000       0.84260000       2.82320000
