20
Properties=species:S:1:pos:R:3 gdb_74954=T pbc="F F F"
C        0.02960000       1.50960000       0.06740000
C       -0.00860000       0.01670000      -0.06670000
N       -0.03330000      -0.56740000      -1.19510000
C       -0.03370000      -2.03820000      -1.17880000
C       -1.44260000      -2.56390000      -0.82500000
C       -1.48460000      -2.49540000       0.73560000
C       -0.07310000      -2.02960000       1.13870000
C        0.81360000      -2.53960000       0.00210000
O       -0.01220000      -0.58270000       1.16000000
H        0.92250000       1.81700000       0.62130000
H        0.03470000       1.96520000      -0.92190000
H       -0.83810000       1.86330000       0.63370000
H        0.31210000      -2.38840000      -2.15370000
H       -2.21770000      -1.95620000      -1.29620000
H       -1.56680000      -3.59330000      -1.17720000
H       -2.23750000      -1.80200000       1.11730000
H       -1.69380000      -3.47640000       1.17310000
H        0.22510000      -2.33560000       2.14230000
H        0.87670000      -3.63250000       0.02420000
H        1.82360000      -2.12310000       0.02330000
