16
Properties=species:S:1:pos:R:3 gdb_123562=T pbc="F F F"
C        0.02760000       1.47010000       0.00710000
C        1.26730000       0.65830000       0.02490000
C        1.98020000       0.37070000       1.36840000
C        0.89540000      -0.36300000       2.11460000
C       -0.17580000      -0.53570000       1.27490000
N       -1.12600000      -1.21880000       1.93830000
N       -0.72590000      -1.51050000       3.20770000
C        0.49970000      -0.98790000       3.31350000
N       -0.08030000      -0.01680000      -0.03500000
H       -0.28350000       1.95830000       0.92670000
H       -0.27610000       1.96560000      -0.91000000
H        1.85000000       0.58670000      -0.88730000
H        2.87170000      -0.24410000       1.19700000
H        2.31850000       1.29360000       1.85340000
H       -2.03320000      -1.51860000       1.62520000
H        1.03290000      -1.09750000       4.24680000
