16
Properties=species:S:1:pos:R:3 gdb_20237=T pbc="F F F"
C       -0.02770000       1.59250000      -0.00490000
O        1.33950000       2.04350000      -0.03240000
C        2.15740000       0.89140000       0.02040000
C        2.10190000       0.06810000       1.31500000
C        0.67830000      -0.50790000       1.30290000
C        1.79070000      -1.20990000       0.56620000
C        1.41960000      -0.29720000      -0.65310000
C        0.05680000       0.06440000       0.01690000
H       -0.53260000       1.99060000       0.88490000
H       -0.54460000       1.97760000      -0.89430000
H        3.15560000       1.14210000      -0.33990000
H        2.65690000       0.19980000       2.23440000
H        0.18130000      -0.79910000       2.21910000
H        2.20100000      -2.20390000       0.65020000
H        1.51260000      -0.51840000      -1.71310000
H       -0.82430000      -0.46470000      -0.34710000
