18
Properties=species:S:1:pos:R:3 gdb_85082=T pbc="F F F"
C        0.14860000       1.45050000      -0.01030000
N        0.00870000       0.00010000       0.00950000
C       -0.07260000      -0.69170000      -1.20620000
C       -0.44300000      -1.96930000      -1.31420000
C       -0.82920000      -2.76010000      -0.09400000
O       -0.58010000      -4.15310000      -0.23370000
C       -0.11430000      -2.17960000       1.13530000
C       -0.09770000      -0.65690000       1.22570000
O       -0.10470000      -0.06470000       2.28630000
H        0.99330000       1.73940000      -0.64430000
H       -0.75880000       1.93230000      -0.39150000
H        0.32460000       1.78250000       1.01140000
H        0.17080000      -0.08470000      -2.07130000
H       -0.51420000      -2.44220000      -2.28610000
H       -1.91690000      -2.70150000       0.05490000
H        0.35350000      -4.25880000      -0.45050000
H       -0.52650000      -2.56770000       2.06720000
H        0.94070000      -2.49010000       1.09070000
