19
Properties=species:S:1:pos:R:3 gdb_57048=T pbc="F F F"
C        0.10970000       1.47950000       0.04210000
C        0.02120000      -0.05500000      -0.03440000
C       -1.35150000      -0.54530000       0.08640000
C       -2.47560000      -0.97210000       0.14450000
C        0.62510000      -0.57550000      -1.34740000
O        2.03710000      -0.29510000      -1.44910000
C        2.36480000      -1.70250000      -1.52360000
C        0.88520000      -2.10590000      -1.43560000
O        0.61180000      -2.87240000      -0.28930000
H        1.15010000       1.78720000      -0.08920000
H       -0.49480000       1.94450000      -0.74260000
H       -0.24830000       1.84230000       1.00880000
H        0.61260000      -0.48830000       0.78070000
H       -3.47440000      -1.32660000       0.21590000
H        0.07580000      -0.15400000      -2.20000000
H        2.88180000      -1.95130000      -2.45680000
H        2.95900000      -2.03940000      -0.66710000
H        0.47980000      -2.57250000      -2.34170000
H       -0.34330000      -2.86650000      -0.15010000
