20
Properties=species:S:1:pos:R:3 gdb_120346=T pbc="F F F"
C        0.84520000       1.28720000      -2.58780000
O        0.88360000      -0.07680000      -2.24370000
C       -0.23320000      -0.48450000      -1.48360000
C       -0.07400000      -1.97830000      -1.20090000
C        1.11240000      -2.35650000      -0.33750000
C        0.72710000      -3.14890000       0.66280000
C       -0.75360000      -3.32740000       0.63330000
C       -1.53510000      -2.07380000       0.83620000
N       -1.26250000      -2.55820000      -0.52680000
H       -0.04140000       1.52990000      -3.19480000
H        0.83650000       1.93460000      -1.69640000
H        1.74310000       1.50310000      -3.17200000
H       -0.29160000       0.09210000      -0.54650000
H       -1.17090000      -0.31430000      -2.03750000
H        0.01200000      -2.46370000      -2.18360000
H        2.11600000      -2.00490000      -0.53980000
H        1.36530000      -3.59360000       1.41660000
H       -1.19960000      -4.29910000       0.82830000
H       -2.58560000      -2.11680000       1.11140000
H       -0.98950000      -1.21860000       1.22590000
