17
Properties=species:S:1:pos:R:3 gdb_71473=T pbc="F F F"
O       -0.14750000       1.41840000       0.02860000
C       -0.05350000       0.03830000       0.00870000
C        0.44110000      -0.74500000      -1.24590000
C       -0.50700000      -1.84570000      -0.77820000
C       -1.33340000      -0.88750000       0.03070000
C       -0.44390000      -1.87890000       0.77420000
C        0.52130000      -0.76730000       1.20710000
C       -0.83350000      -3.02530000       1.51650000
C       -1.14900000      -3.99410000       2.15810000
H        0.74310000       1.78720000       0.04430000
H        0.07150000      -0.27490000      -2.16130000
H        1.51250000      -0.95980000      -1.33140000
H       -0.84590000      -2.72060000      -1.31590000
H       -2.39380000      -0.69910000       0.10200000
H        1.59630000      -0.98110000       1.21940000
H        0.20610000      -0.33280000       2.15880000
H       -1.43080000      -4.84740000       2.72300000
