21
Properties=species:S:1:pos:R:3 gdb_113978=T pbc="F F F"
C       -0.12560000       1.39620000      -0.64280000
C       -0.03170000       0.22250000       0.34060000
C       -1.34350000      -0.51690000       0.45160000
O       -1.72200000      -1.35940000      -0.64660000
C       -1.50190000      -1.97000000       0.63320000
C       -0.37590000      -2.96990000       0.73260000
C       -0.71600000      -4.26500000      -0.03880000
C        0.33550000      -5.26930000       0.05180000
C        1.21950000      -6.07860000       0.14470000
H        0.82790000       1.92730000      -0.71440000
H       -0.39400000       1.03860000      -1.64130000
H       -0.88820000       2.11720000      -0.32870000
H        0.75940000      -0.46160000       0.02120000
H        0.24460000       0.58940000       1.33770000
H       -2.16730000       0.10410000       0.81520000
H       -2.42750000      -2.30100000       1.11300000
H        0.55250000      -2.55450000       0.33490000
H       -0.19920000      -3.20990000       1.78760000
H       -1.65680000      -4.68300000       0.34300000
H       -0.89910000      -4.00770000      -1.08890000
H        1.99190000      -6.80330000       0.21680000
