17
Properties=species:S:1:pos:R:3 gdb_82354=T pbc="F F F"
O       -0.01920000       1.45280000      -0.02060000
C       -0.00520000       0.04110000       0.01190000
C       -1.42070000      -0.50630000      -0.14670000
C       -2.35600000       0.23940000      -1.02050000
N       -1.64890000      -0.93510000      -1.55030000
C       -0.42140000      -0.61280000      -2.30720000
C        0.70280000      -0.57740000      -1.23860000
C        1.90260000       0.15270000      -1.62200000
N        2.83990000       0.77640000      -1.88650000
H        0.89280000       1.76850000      -0.02210000
H        0.45900000      -0.32500000       0.93650000
H       -1.79100000      -1.17440000       0.62440000
H       -3.42680000       0.10730000      -0.89540000
H       -2.04440000       1.22530000      -1.35130000
H       -0.23700000      -1.38820000      -3.05400000
H       -0.49440000       0.34910000      -2.82520000
H        0.98120000      -1.60860000      -0.99390000
