14
Properties=species:S:1:pos:R:3 gdb_133216=T pbc="F F F"
C        0.13110000       1.46430000       0.05870000
C       -0.00540000      -0.02770000       0.01860000
N       -0.08290000      -0.55790000      -1.15600000
O       -0.21120000      -1.94340000      -1.25210000
C       -0.25210000      -2.69960000      -0.13800000
C       -0.17450000      -2.18550000       1.09740000
F       -0.21950000      -2.97590000       2.17130000
C       -0.04030000      -0.76360000       1.29990000
N        0.04500000      -0.13030000       2.41360000
H        1.04910000       1.73810000       0.58700000
H        0.14260000       1.86990000      -0.95300000
H       -0.69510000       1.89650000       0.63080000
H       -0.35350000      -3.75480000      -0.35910000
H        0.00450000      -0.78990000       3.19350000
