18
Properties=species:S:1:pos:R:3 gdb_18827=T pbc="F F F"
C       -0.21440000       1.30910000      -0.21650000
C       -0.04860000      -0.07250000       0.32970000
C       -1.05890000      -0.96090000       0.49760000
C       -1.79100000      -1.34880000      -0.80590000
C       -0.71310000      -2.48940000      -0.82100000
C        0.70420000      -2.22800000      -0.15650000
C        1.26690000      -0.83270000       0.15940000
C       -0.51930000      -2.39410000       0.66520000
H        0.26310000       1.41750000      -1.20020000
H       -1.27010000       1.58050000      -0.30400000
H        0.26240000       2.05080000       0.43830000
H       -2.78490000      -1.79940000      -0.69940000
H       -1.80900000      -0.60220000      -1.60630000
H       -0.82410000      -3.40940000      -1.39150000
H        1.38560000      -3.06530000      -0.30050000
H        1.83500000      -0.36640000      -0.65580000
H        1.94410000      -0.88190000       1.02490000
H       -0.74260000      -3.10550000       1.44970000
