20
Properties=species:S:1:pos:R:3 gdb_71806=T pbc="F F F"
C       -0.15370000       1.57960000      -0.01310000
C       -0.05520000       0.08430000      -0.07730000
C        0.60860000      -0.70450000      -1.22530000
C       -0.15810000      -1.97210000      -0.75080000
C        0.62070000      -2.75090000       0.32280000
C        1.89490000      -2.14950000       0.89480000
C        0.57200000      -1.84940000       1.53300000
N       -0.22260000      -0.67120000       1.19160000
C       -1.08570000      -0.99600000       0.06890000
H        0.82150000       2.02690000       0.21340000
H       -0.49200000       1.98760000      -0.97220000
H       -0.85380000       1.88720000       0.76740000
H        0.19190000      -0.33980000      -2.17000000
H        1.69620000      -0.74260000      -1.32470000
H       -0.58720000      -2.59890000      -1.53160000
H        0.47570000      -3.82320000       0.39580000
H        2.54510000      -2.82650000       1.44120000
H        2.42810000      -1.36980000       0.36840000
H        0.36720000      -2.21780000       2.53280000
H       -2.16790000      -0.96770000       0.14420000
