20
Properties=species:S:1:pos:R:3 gdb_83493=T pbc="F F F"
C       -0.19110000       1.43630000      -0.01680000
N        0.06950000       0.00640000       0.01280000
C        1.02250000      -0.50900000      -0.99440000
C        2.41720000       0.00930000      -0.52900000
C        2.26750000      -0.00830000       1.02080000
C        0.79060000      -0.50250000       1.19390000
C        0.82040000      -1.99290000       0.84280000
O        0.80160000      -2.93120000       1.59260000
C        0.92780000      -2.01640000      -0.69300000
H        0.70160000       2.07550000       0.08580000
H       -0.67730000       1.68960000      -0.96450000
H       -0.88250000       1.69330000       0.79170000
H        0.74390000      -0.22830000      -2.01130000
H        3.23100000      -0.62690000      -0.88590000
H        2.60630000       1.01890000      -0.90260000
H        2.98050000      -0.67090000       1.51760000
H        2.39080000       0.98650000       1.45530000
H        0.31960000      -0.27450000       2.14890000
H        0.01680000      -2.45220000      -1.11350000
H        1.78240000      -2.61280000      -1.02260000
