12
Properties=species:S:1:pos:R:3 gdb_693=T pbc="F F F"
O        0.05990000       1.39010000      -0.11900000
C        0.04190000      -0.00430000      -0.01880000
C        0.32400000      -0.66660000       1.39140000
C       -1.08870000      -1.24810000       1.33440000
O       -1.98870000      -0.13660000       1.18050000
C       -1.34890000      -0.66710000       0.00740000
H       -0.62930000       1.70630000       0.47980000
H        0.69960000      -0.39700000      -0.79760000
H        1.11450000      -1.41980000       1.34750000
H        0.51630000       0.02610000       2.21400000
H       -1.49100000      -2.14410000       1.79110000
H       -1.99230000      -0.98310000      -0.80580000
