12
Properties=species:S:1:pos:R:3 gdb_50776=T pbc="F F F"
O       -0.40040000       0.72330000       1.00000000
C       -0.02970000       1.12370000      -0.06570000
C        1.35890000       1.75320000      -0.27740000
C        1.34530000       2.83870000      -1.23640000
C        1.28860000       3.74040000      -2.03770000
C        1.23940000       4.81330000      -2.98810000
O        1.92160000       5.81070000      -2.94800000
C        0.25610000       4.60960000      -4.06900000
N       -0.51330000       4.45240000      -4.91760000
H       -0.64910000       1.05010000      -0.98350000
H        1.75610000       2.06530000       0.69350000
H        2.01300000       0.95080000      -0.65200000
