13
Properties=species:S:1:pos:R:3 gdb_33283=T pbc="F F F"
N        0.08110000      -3.70160000       0.00120000
C        0.04780000      -2.54040000      -0.00430000
C        0.01460000      -1.17610000      -0.00670000
C       -0.00960000       0.03180000      -0.00550000
C       -0.02010000       1.46390000       0.00830000
C        0.50540000       2.18790000       1.26400000
C        1.33120000       2.20580000       0.02910000
C       -1.10490000       2.09350000      -0.70790000
N       -1.96550000       2.61570000      -1.27600000
H       -0.03240000       3.08460000       1.54670000
H        0.80180000       1.54380000       2.08250000
H        2.20940000       1.57430000      -0.02250000
H        1.37500000       3.11510000      -0.55780000
