13
Properties=species:S:1:pos:R:3 gdb_128897=T pbc="F F F"
N       -0.89840000      -0.07710000      -1.40600000
C       -0.39070000       0.42730000      -0.49970000
C        0.25960000       1.06860000       0.63920000
C        1.55590000       1.78460000       0.30710000
C        2.11490000       1.84880000      -0.97230000
N        3.25670000       2.49310000      -1.20310000
N        3.87240000       3.08640000      -0.18580000
C        3.30560000       3.00120000       1.01780000
N        2.16720000       2.37580000       1.32660000
H       -0.43120000       1.78820000       1.09350000
H        0.46260000       0.31760000       1.41130000
H        1.64630000       1.37900000      -1.83060000
H        3.83570000       3.49730000       1.82550000
