19
Properties=species:S:1:pos:R:3 gdb_49727=T pbc="F F F"
O        0.01810000      -0.09200000       0.35310000
C        0.01850000       1.07020000       0.01810000
C        1.23730000       1.90550000      -0.03380000
C        1.49890000       2.92320000      -1.15280000
C        0.49460000       3.18360000      -2.28010000
C       -0.28530000       4.49800000      -2.07460000
C       -0.77670000       4.65160000      -0.65510000
C       -0.11970000       4.14010000       0.38750000
C        1.17120000       3.42320000       0.21580000
H       -0.92670000       1.58350000      -0.25570000
H        2.11250000       1.39200000       0.35010000
H        2.54250000       2.96780000      -1.44640000
H        1.02830000       3.21400000      -3.23470000
H       -0.22090000       2.36060000      -2.36320000
H        0.35310000       5.35640000      -2.33020000
H       -1.12820000       4.53860000      -2.77280000
H       -1.69450000       5.21120000      -0.49580000
H       -0.49800000       4.26660000       1.39850000
H        1.98750000       3.79230000       0.83170000
