19
Properties=species:S:1:pos:R:3 gdb_58796=T pbc="F F F"
C        0.07580000       1.52830000       0.11430000
C        0.00240000       0.01430000      -0.09400000
O        0.83350000      -0.68390000       0.82750000
C       -1.41970000      -0.49670000      -0.04510000
C       -2.09930000      -0.97610000       1.18580000
C       -1.87700000      -1.97970000       0.05360000
C       -2.86010000      -1.71680000      -1.04160000
O       -3.53680000      -2.41930000      -1.73790000
C       -2.48590000      -0.20920000      -1.11980000
H        1.11400000       1.86680000       0.05770000
H       -0.50550000       2.06140000      -0.64410000
H       -0.32960000       1.80300000       1.09610000
H        0.41560000      -0.22620000      -1.08250000
H        0.73260000      -0.26720000       1.68990000
H       -1.46240000      -1.17450000       2.04160000
H       -3.10310000      -0.64530000       1.43800000
H       -1.29950000      -2.88030000       0.21900000
H       -3.25470000       0.53030000      -0.87740000
H       -2.07200000       0.01340000      -2.10900000
