21
Properties=species:S:1:pos:R:3 gdb_94862=T pbc="F F F"
C       -0.15270000       1.62170000      -0.19760000
C       -0.04050000       0.10970000       0.01770000
C        0.71870000      -0.64000000      -1.16150000
O        1.61880000      -1.63000000      -0.60840000
C        1.91440000      -1.09880000       0.63690000
C        2.36310000      -1.56700000       2.04150000
C        1.89850000      -0.05300000       2.16230000
C        2.72240000       0.22130000       0.88530000
C        0.67440000      -0.47170000       1.26280000
H        0.81910000       2.11260000      -0.29640000
H       -0.72080000       1.83780000      -1.10970000
H       -0.68030000       2.09270000       0.63750000
H       -1.06370000      -0.27790000       0.05200000
H        0.04020000      -1.16430000      -1.83880000
H        1.29880000       0.08710000      -1.74650000
H        1.73620000      -2.31200000       2.53710000
H        3.42830000      -1.75080000       2.20240000
H        1.89080000       0.53100000       3.08060000
H        3.80670000       0.11360000       0.96880000
H        2.45910000       1.10070000       0.30130000
H        0.02350000      -1.19100000       1.76780000
