21
Properties=species:S:1:pos:R:3 gdb_122258=T pbc="F F F"
O        0.05780000       1.37570000      -0.35590000
C        0.05180000       0.01950000       0.06400000
C       -1.35370000      -0.52900000      -0.14070000
C       -1.47930000      -2.00010000       0.26780000
C       -2.88950000      -2.55940000       0.09520000
C       -3.30420000      -3.04930000      -1.28590000
C       -3.04520000      -4.04580000      -0.19340000
C       -3.90280000      -1.94130000       0.91040000
C       -4.73460000      -1.41780000       1.60490000
H        0.94030000       1.73020000      -0.21470000
H        0.77560000      -0.57900000      -0.51500000
H        0.33520000      -0.07040000       1.12590000
H       -2.05710000       0.07900000       0.43830000
H       -1.62690000      -0.40760000      -1.19560000
H       -0.79150000      -2.61210000      -0.32980000
H       -1.17610000      -2.12290000       1.31550000
H       -4.32880000      -2.87850000      -1.59320000
H       -2.57110000      -2.95160000      -2.07970000
H       -2.13550000      -4.63530000      -0.23560000
H       -3.89400000      -4.55370000       0.24850000
H       -5.47310000      -0.95560000       2.21160000
