14
Properties=species:S:1:pos:R:3 gdb_2605=T pbc="F F F"
O        0.13670000       1.39150000       0.37270000
C        0.03740000       0.06350000      -0.09540000
C       -1.37720000      -0.48040000      -0.01650000
C       -1.59170000      -1.94680000       0.19280000
N       -1.93410000      -1.01080000       1.25350000
C       -2.39880000       0.28180000      -0.78920000
O       -2.14190000       1.25700000      -1.45710000
H       -0.37790000       1.92810000      -0.24330000
H        0.39280000      -0.02780000      -1.13320000
H        0.69770000      -0.54540000       0.53300000
H       -2.43580000      -2.44880000      -0.27270000
H       -0.69320000      -2.55350000       0.27890000
H       -1.20980000      -0.97810000       1.96750000
H       -3.43570000      -0.10350000      -0.69140000
