14
Properties=species:S:1:pos:R:3 gdb_43005=T pbc="F F F"
O        0.02810000       0.06350000       0.14050000
C       -0.05080000       1.25370000       0.04060000
C       -1.28450000       2.07040000      -0.21600000
O       -1.31760000       3.23090000       0.63470000
C       -0.84910000       3.39700000      -0.69560000
C        0.66600000       3.47910000      -0.77480000
C        1.16520000       2.24550000       0.03350000
C        1.58760000       2.56590000       1.39170000
N        1.93830000       2.82050000       2.46310000
H       -2.23200000       1.59720000      -0.44920000
H       -1.47590000       3.99410000      -1.35220000
H        0.99100000       3.39810000      -1.81650000
H        1.04220000       4.42230000      -0.37330000
H        1.99200000       1.73650000      -0.46830000
