19
Properties=species:S:1:pos:R:3 gdb_119676=T pbc="F F F"
O        0.12790000       1.39190000       0.00890000
C        0.08780000      -0.02490000      -0.03710000
C       -1.34560000      -0.57120000      -0.00300000
C       -1.39130000      -2.06660000      -0.04060000
O       -0.75640000      -2.81590000       1.05210000
C       -1.29320000      -3.83940000       0.16670000
C       -2.59800000      -3.05760000      -0.17370000
C       -2.38180000      -3.22700000      -1.69280000
C       -0.94340000      -3.08630000      -1.15060000
H       -0.17050000       1.66650000       0.88170000
H        0.56840000      -0.30590000      -0.98010000
H        0.67350000      -0.47840000       0.77440000
H       -1.84660000      -0.23080000       0.91340000
H       -1.91190000      -0.16640000      -0.84990000
H       -1.15370000      -4.88700000       0.43130000
H       -3.51860000      -3.03950000       0.41020000
H       -2.64940000      -4.19850000      -2.11710000
H       -2.74630000      -2.42000000      -2.33420000
H        0.01150000      -3.10350000      -1.67630000
