19
Properties=species:S:1:pos:R:3 gdb_82885=T pbc="F F F"
C       -0.06630000       1.54500000       0.10120000
C       -0.02120000       0.04190000       0.09710000
C        0.90530000      -0.76240000      -0.90830000
C        1.99890000      -0.83700000       0.18010000
C        0.78060000      -0.87470000       1.11410000
C       -0.20630000      -1.95180000       0.49990000
O        0.31680000      -2.07770000      -0.82910000
C       -1.26620000      -0.83870000       0.29510000
O       -1.93390000      -0.41130000       1.46490000
H        0.93560000       1.98420000       0.15560000
H       -0.54530000       1.92580000      -0.80870000
H       -0.64280000       1.90290000       0.95940000
H        1.08210000      -0.47600000      -1.94440000
H        2.68180000      -1.68860000       0.13040000
H        2.55340000       0.09780000       0.29410000
H        0.80310000      -0.72190000       2.18940000
H       -0.41910000      -2.92460000       0.94270000
H       -1.95300000      -0.98560000      -0.54980000
H       -2.59200000      -1.07600000       1.69110000
