21
Properties=species:S:1:pos:R:3 gdb_97843=T pbc="F F F"
C        0.08200000       1.48250000       0.12320000
C       -0.01970000      -0.03820000      -0.09690000
C       -1.39740000      -0.52380000      -0.08700000
C       -2.55690000      -0.86140000      -0.07880000
C       -3.92110000      -1.35720000      -0.05980000
C       -4.54820000      -1.57110000      -1.47910000
C       -4.09400000      -3.05300000      -1.43630000
C       -3.96630000      -2.92720000       0.10590000
O       -2.93430000      -3.57000000       0.78730000
H        1.12870000       1.80030000       0.10680000
H       -0.45600000       2.02490000      -0.65880000
H       -0.34960000       1.76450000       1.08730000
H        0.45390000      -0.30240000      -1.05120000
H        0.55710000      -0.55800000       0.67880000
H       -4.52470000      -0.78930000       0.65420000
H       -5.63550000      -1.46720000      -1.44280000
H       -4.15690000      -0.94450000      -2.28090000
H       -4.76840000      -3.81600000      -1.83090000
H       -3.10710000      -3.18120000      -1.89070000
H       -4.89900000      -3.21640000       0.59940000
H       -2.11460000      -3.11480000       0.55130000
