23
Properties=species:S:1:pos:R:3 gdb_110972=T pbc="F F F"
C        0.04150000       1.47310000      -0.21360000
C        0.21690000      -0.05040000      -0.24720000
C        0.79760000      -0.59310000       1.05410000
C       -0.06660000      -0.79820000       2.34790000
C       -0.70470000      -2.04550000       1.67100000
C        0.82740000      -2.11220000       1.37370000
O        1.51910000      -3.02600000       0.59610000
C        1.04830000      -1.75550000       2.88790000
C        2.38060000      -1.26120000       3.43060000
H        0.99210000       1.97780000      -0.00710000
H       -0.33380000       1.85080000      -1.16980000
H       -0.66690000       1.77450000       0.56560000
H       -0.74070000      -0.51850000      -0.49460000
H        0.90190000      -0.31950000      -1.06140000
H        1.74950000      -0.08820000       1.23990000
H       -0.59110000      -0.03380000       2.91770000
H       -1.10240000      -2.80760000       2.34830000
H       -1.37720000      -1.87860000       0.83060000
H        1.36290000      -3.90840000       0.94980000
H        0.64380000      -2.52230000       3.56080000
H        2.83090000      -0.46100000       2.83950000
H        2.26040000      -0.88770000       4.45350000
H        3.10150000      -2.08560000       3.46730000
