15
Properties=species:S:1:pos:R:3 gdb_132608=T pbc="F F F"
N        0.00550000       1.42640000      -0.09360000
C        0.00220000       0.02500000      -0.03610000
C       -1.19910000      -0.69450000      -0.01780000
C       -1.20650000      -2.08600000      -0.02830000
C       -0.01460000      -2.80140000      -0.05590000
O       -0.01620000      -4.16600000      -0.06300000
C        1.17230000      -2.07220000      -0.07270000
F        2.32440000      -2.77650000      -0.09590000
C        1.20650000      -0.69120000      -0.06360000
H        0.83550000       1.85330000       0.29330000
H       -0.82390000       1.85180000       0.29640000
H       -2.14190000      -0.15700000       0.00070000
H       -2.14080000      -2.63560000      -0.01210000
H        0.90290000      -4.45760000      -0.08440000
H        2.16650000      -0.18740000      -0.08320000
