21
Properties=species:S:1:pos:R:3 gdb_83350=T pbc="F F F"
C       -0.14330000       1.53430000       0.03370000
C        0.05020000       0.02160000       0.01450000
C        1.07010000      -0.58260000      -0.99260000
C        2.42560000      -0.00430000      -0.45390000
C        2.21660000      -0.02430000       1.08690000
C        0.77130000      -0.61290000       1.23310000
O        0.13110000      -0.36120000       2.45960000
C        0.86120000      -2.06090000       0.76440000
C        1.03640000      -2.04040000      -0.55990000
H        0.79550000       2.08990000       0.10550000
H       -0.65440000       1.86580000      -0.87650000
H       -0.76300000       1.81890000       0.88960000
H       -0.92360000      -0.46190000      -0.10950000
H        0.89100000      -0.39180000      -2.05170000
H        3.27510000      -0.61100000      -0.77550000
H        2.59200000       1.01200000      -0.82230000
H        2.95480000      -0.63890000       1.61020000
H        2.24960000       0.97960000       1.52030000
H        0.71310000      -0.64730000       3.17060000
H        0.87190000      -2.91390000       1.43280000
H        1.22860000      -2.88250000      -1.21380000
