17
Properties=species:S:1:pos:R:3 gdb_48330=T pbc="F F F"
O       -0.95530000       0.94840000       0.67100000
C        0.04530000       0.83530000       0.01160000
C        1.21400000       1.81640000       0.05070000
C        1.26440000       2.68920000      -1.21400000
C        1.28730000       1.92890000      -2.45830000
C        1.30200000       1.29850000      -3.48100000
C        1.39770000       2.54100000       1.39760000
C        2.62080000       1.61790000       1.56300000
O        2.42760000       1.04660000       0.24330000
H        0.21840000      -0.02650000      -0.66520000
H        0.39540000       3.36070000      -1.19760000
H        2.15880000       3.32020000      -1.14590000
H        1.31840000       0.74290000      -4.38580000
H        1.63070000       3.60350000       1.31080000
H        0.57400000       2.39910000       2.09680000
H        3.59440000       2.11170000       1.64560000
H        2.53530000       0.85740000       2.34720000
