18
Properties=species:S:1:pos:R:3 gdb_39696=T pbc="F F F"
C       -0.08890000       1.48430000       0.01120000
C        1.26880000       0.81500000      -0.01680000
C        0.01610000      -0.01650000       0.01040000
C       -0.37650000      -0.90290000       1.15360000
C       -1.62390000      -1.70680000       0.79520000
C       -0.26230000      -2.33760000       0.70380000
N       -0.27920000      -2.33100000      -0.81390000
C       -1.62590000      -1.67490000      -0.74270000
C       -0.43640000      -0.87150000      -1.13020000
H       -0.40040000       1.97280000       0.92840000
H       -0.43550000       1.97570000      -0.89210000
H        1.83900000       0.85270000      -0.93910000
H        1.87590000       0.85270000       0.88160000
H       -0.18660000      -0.64290000       2.18740000
H       -2.45550000      -1.89660000       1.45820000
H        0.21280000      -3.14870000       1.23840000
H       -2.43780000      -1.96610000      -1.39880000
H       -0.24120000      -0.60350000      -2.16270000
