27
Properties=species:S:1:pos:R:3 gdb_115277=T pbc="F F F"
C       -0.10070000       1.65470000       0.18340000
C       -0.02240000       0.12620000       0.10740000
C       -1.37660000      -0.56280000      -0.08110000
C       -2.09600000      -0.27900000      -1.41180000
C       -3.19840000      -1.34820000      -1.45380000
C       -2.58870000      -2.62590000      -0.78850000
C       -3.57380000      -3.23640000       0.22060000
C       -2.23000000      -3.67730000      -1.85090000
C       -1.30120000      -2.10260000      -0.07330000
H        0.88800000       2.09410000       0.34940000
H       -0.50210000       2.08390000      -0.74030000
H       -0.74910000       1.97660000       1.00630000
H        0.64240000      -0.16740000      -0.71710000
H        0.44680000      -0.25570000       1.02380000
H       -2.04220000      -0.24140000       0.73500000
H       -2.48980000       0.73840000      -1.49180000
H       -1.39000000      -0.41920000      -2.24250000
H       -4.06090000      -1.00330000      -0.87120000
H       -3.56270000      -1.54660000      -2.46680000
H       -4.52140000      -3.50100000      -0.26280000
H       -3.16570000      -4.14700000       0.67400000
H       -3.79950000      -2.53230000       1.02930000
H       -1.58110000      -3.25280000      -2.62520000
H       -1.70030000      -4.52660000      -1.40400000
H       -3.12850000      -4.06620000      -2.34360000
H       -0.41040000      -2.41690000      -0.63250000
H       -1.19620000      -2.51110000       0.93720000
