20
Properties=species:S:1:pos:R:3 gdb_96276=T pbc="F F F"
C        0.36980000       1.36830000       0.43330000
C       -0.18070000       0.07520000      -0.15770000
C        0.79040000      -0.59330000      -1.13260000
C        0.31820000      -1.95230000      -1.67400000
C       -0.16590000      -2.90120000      -0.56520000
O        0.60500000      -2.76390000       0.63820000
C        0.37590000      -1.66200000       1.40640000
N        0.94750000      -1.45780000       2.51370000
O       -0.56500000      -0.81610000       0.92700000
H        1.27990000       1.16860000       1.00630000
H        0.60260000       2.08450000      -0.36150000
H       -0.36320000       1.81850000       1.10670000
H       -1.13120000       0.27290000      -0.66600000
H        0.96460000       0.09520000      -1.96610000
H        1.75840000      -0.71760000      -0.63300000
H       -0.50060000      -1.81810000      -2.39090000
H        1.14590000      -2.41140000      -2.22460000
H       -1.22070000      -2.73040000      -0.33750000
H       -0.03970000      -3.94570000      -0.85840000
H        1.55330000      -2.24850000       2.73410000
