15
Properties=species:S:1:pos:R:3 gdb_2656=T pbc="F F F"
C       -0.04600000       1.55640000       0.05830000
C        0.01060000       0.01810000      -0.01300000
C        0.68790000      -0.47540000      -1.20320000
C        1.25430000      -0.86940000      -2.19860000
C        1.89030000      -1.31230000      -3.31660000
C        2.45630000      -1.70600000      -4.31150000
C        3.13530000      -2.17830000      -5.50490000
H        0.96090000       1.98180000       0.06590000
H       -0.57930000       1.96540000      -0.80390000
H       -0.56330000       1.87410000       0.96830000
H        0.51680000      -0.37210000       0.87990000
H       -1.00900000      -0.38830000       0.01820000
H        3.16490000      -3.27340000      -5.53780000
H        2.62890000      -1.83270000      -6.41350000
H        4.16940000      -1.81710000      -5.54330000
