15
Properties=species:S:1:pos:R:3 gdb_20283=T pbc="F F F"
N       -0.02370000       1.47510000      -0.04600000
C        1.29620000       0.79390000       0.03020000
C        0.04750000      -0.00800000       0.03870000
C        0.08910000      -0.67180000      -1.32300000
C        0.68810000       0.34240000      -2.34090000
O        1.37650000      -0.73720000      -3.07090000
C        1.58100000      -1.04070000      -1.65740000
C        1.86930000       0.47150000      -1.33510000
H       -0.25220000       1.84080000       0.87730000
H        1.92320000       0.92520000       0.90420000
H       -0.32430000      -0.51810000       0.91950000
H       -0.70230000      -1.33960000      -1.65780000
H        0.18800000       1.11510000      -2.91990000
H        2.15610000      -1.93350000      -1.40620000
H        2.80260000       0.91120000      -1.68160000
