9
Properties=species:S:1:pos:R:3 gdb_21849=T pbc="F F F"
O        0.03210000      -0.02520000       0.13150000
C       -0.01910000       1.14160000      -0.04740000
O        1.09720000       1.94180000       0.20200000
C        0.95370000       3.26640000       0.12450000
N       -0.13050000       3.94920000       0.35940000
O        0.25760000       5.23400000       0.15630000
N        1.60550000       5.25350000      -0.18340000
N        2.02370000       4.06820000      -0.20650000
H       -0.87150000       1.72810000      -0.41870000
