19
Properties=species:S:1:pos:R:3 gdb_120836=T pbc="F F F"
O       -0.11810000       1.40390000       0.06180000
C       -0.15070000       0.02150000       0.37520000
C       -1.28780000      -0.60570000      -0.42510000
C       -1.38970000      -2.09910000      -0.20100000
C       -2.13200000      -2.65450000       1.00070000
C       -2.68600000      -2.82670000      -0.38910000
O       -3.79830000      -2.05080000      -0.79170000
C       -5.00220000      -2.43050000      -0.30910000
O       -6.01600000      -1.87710000      -0.60890000
H        0.58780000       1.81310000       0.57040000
H        0.80230000      -0.47020000       0.11690000
H       -0.31880000      -0.14400000       1.45160000
H       -2.22710000      -0.11410000      -0.15650000
H       -1.12140000      -0.39810000      -1.48850000
H       -0.51380000      -2.66320000      -0.51250000
H       -1.74730000      -3.52610000       1.51820000
H       -2.63630000      -1.93420000       1.63690000
H       -2.66730000      -3.81030000      -0.84990000
H       -4.93280000      -3.29320000       0.37980000
