19
Properties=species:S:1:pos:R:3 gdb_16840=T pbc="F F F"
C        0.18820000       1.55940000      -0.08900000
C        0.05200000       0.05010000       0.03990000
O        0.66310000      -0.55890000      -1.09970000
C        1.21150000      -1.83500000      -0.76200000
C        2.42900000      -2.08370000      -1.63890000
C        1.47870000      -1.75790000       0.73290000
N        2.22470000      -0.53670000       1.10600000
C        0.75210000      -0.57660000       1.23550000
H        1.24420000       1.83770000      -0.05590000
H       -0.23750000       1.89870000      -1.03720000
H       -0.34140000       2.06440000       0.72560000
H       -1.01520000      -0.22930000       0.08960000
H        0.45840000      -2.62500000      -0.92970000
H        3.20320000      -1.34730000      -1.41090000
H        2.82820000      -3.08870000      -1.46660000
H        2.15940000      -1.99810000      -2.69500000
H        1.59960000      -2.66800000       1.31100000
H        2.64120000      -0.67120000       2.02420000
H        0.29030000      -0.53950000       2.21660000
