19
Properties=species:S:1:pos:R:3 gdb_74443=T pbc="F F F"
C        0.02700000       1.50070000       0.09460000
C       -0.07610000       0.01830000      -0.02290000
C       -0.10520000      -0.78160000      -1.09240000
C       -0.03740000      -2.20410000      -0.53820000
C       -0.46810000      -3.37640000      -1.37160000
O        1.33920000      -2.38910000      -0.07970000
C        1.42670000      -1.58500000       1.09600000
C       -0.00180000      -0.95320000       1.15510000
O       -0.75070000      -2.08080000       0.68110000
H        0.95330000       1.79770000       0.60350000
H        0.01620000       1.98110000      -0.88720000
H       -0.79970000       1.91240000       0.68720000
H       -0.04600000      -0.51570000      -2.13940000
H        0.17530000      -3.46300000      -2.25070000
H       -0.38950000      -4.29480000      -0.78610000
H       -1.50150000      -3.24400000      -1.70100000
H        1.61040000      -2.22100000       1.96880000
H        2.22710000      -0.84230000       1.00510000
H       -0.34840000      -0.61850000       2.13180000
