21
Properties=species:S:1:pos:R:3 gdb_22076=T pbc="F F F"
C        0.29250000       1.66040000      -0.05450000
C        0.03720000       0.16240000       0.05150000
N        0.85870000      -0.68340000      -0.87230000
C        1.30560000      -1.59000000       0.24490000
C        0.62400000      -2.96270000       0.24300000
C        2.82490000      -1.71460000       0.33470000
C        0.65470000      -0.60470000       1.20450000
N        0.69750000      -0.54350000       2.46560000
O       -0.07080000       0.53380000       2.95490000
H        1.36190000       1.87270000       0.02440000
H       -0.05770000       2.03370000      -1.02240000
H       -0.23320000       2.19410000       0.74150000
H       -1.04410000      -0.03280000      -0.01360000
H        0.30960000      -1.16370000      -1.57810000
H        0.95220000      -3.54550000      -0.62570000
H        0.88060000      -3.52570000       1.14550000
H       -0.46570000      -2.86680000       0.20340000
H        3.29320000      -0.72850000       0.29800000
H        3.11600000      -2.20680000       1.26800000
H        3.20760000      -2.30580000      -0.50440000
H        0.07070000       0.46740000       3.90520000
