16
Properties=species:S:1:pos:R:3 gdb_37665=T pbc="F F F"
O       -0.07960000       1.46380000      -0.04320000
C        1.37240000       1.40810000       0.02800000
C        1.30420000       0.08600000       0.85680000
C        2.28880000      -0.90810000       0.27440000
C        2.79830000      -0.37640000      -1.01730000
C        1.79030000       0.75040000      -1.31090000
C        0.70440000      -0.38020000      -1.30150000
C       -0.00340000       0.01420000       0.01350000
N        1.74770000      -1.44680000      -1.01870000
H        1.84160000       2.33260000       0.36400000
H        1.20350000       0.17110000       1.93520000
H        2.84930000      -1.61620000       0.87150000
H        3.78640000      -0.53520000      -1.43420000
H        1.91170000       1.38960000      -2.18090000
H        0.10030000      -0.58310000      -2.18210000
H       -0.92580000      -0.47750000       0.31920000
