14
Properties=species:S:1:pos:R:3 gdb_127718=T pbc="F F F"
C       -0.04820000       1.42770000      -0.02720000
N       -0.00240000      -0.01580000       0.04390000
N        0.01140000      -0.77570000      -1.10330000
N        0.02450000      -2.01310000      -0.75480000
C        0.03070000      -2.09940000       0.61440000
C        0.05700000      -3.30070000       1.35550000
N        0.08380000      -4.24460000       2.02790000
C        0.01280000      -0.80810000       1.13460000
N       -0.06650000      -0.34350000       2.42420000
H        0.88450000       1.87320000       0.33530000
H       -0.18430000       1.69300000      -1.07540000
H       -0.88720000       1.81070000       0.56100000
H        0.08390000      -1.05870000       3.12270000
H        0.45070000       0.50030000       2.62730000
