18
Properties=species:S:1:pos:R:3 gdb_77737=T pbc="F F F"
C       -0.00920000       1.43990000      -0.48500000
C       -0.07320000       0.01990000       0.00170000
C        0.63430000      -1.20010000      -0.44890000
N        1.17960000      -0.50480000       0.70290000
C        1.08940000      -1.49700000       1.81590000
C       -0.16490000      -2.29200000       1.48270000
C       -0.50530000      -2.00260000       0.20960000
C       -1.44390000      -0.80030000       0.09070000
O       -2.33610000      -0.61550000       1.14780000
H        1.01180000       1.70580000      -0.76710000
H       -0.66100000       1.57940000      -1.35550000
H       -0.33750000       2.13560000       0.29520000
H        1.19860000      -1.41500000      -1.34890000
H        2.04830000      -2.03040000       1.84150000
H        0.95340000      -1.00870000       2.78780000
H       -0.90600000      -2.49190000       2.24880000
H       -1.94230000      -0.65720000      -0.88030000
H       -3.07660000      -0.08630000       0.83890000
