16
Properties=species:S:1:pos:R:3 gdb_77537=T pbc="F F F"
C        0.02560000       1.42920000       0.15990000
C       -0.05310000      -0.04300000      -0.06610000
C        0.61640000      -0.94410000      -1.12920000
C        0.00030000      -1.86010000      -0.05280000
O        0.52070000      -0.95060000       0.99690000
C        0.14340000      -3.28050000       0.13120000
N        0.22430000      -4.42720000       0.25240000
C       -1.30280000      -0.98380000      -0.07880000
O       -2.12230000      -0.99600000       1.02690000
H        1.05990000       1.74190000       0.32810000
H       -0.36290000       1.96300000      -0.71290000
H       -0.57460000       1.71180000       1.03010000
H        0.18340000      -0.97250000      -2.13160000
H        1.70550000      -0.92610000      -1.12640000
H       -1.91250000      -1.01930000      -0.98370000
H       -1.52900000      -0.98330000       1.79340000
