23
Properties=species:S:1:pos:R:3 gdb_81652=T pbc="F F F"
C       -0.19490000       1.45610000       0.04490000
C        0.03020000      -0.05050000      -0.02220000
C        0.90180000      -0.52290000      -1.22710000
C        2.13680000      -0.49350000      -0.28210000
C        1.15890000      -0.58800000       0.92880000
C        0.88920000      -1.99360000       1.39160000
C        0.76510000      -3.06700000       0.60720000
C        0.95070000      -3.13470000      -0.89340000
C        0.52130000      -1.91980000      -1.74900000
H        0.74430000       2.01220000      -0.05140000
H       -0.85900000       1.78920000      -0.76080000
H       -0.65410000       1.74470000       0.99700000
H       -0.92540000      -0.57420000       0.08320000
H        0.93040000       0.17800000      -2.06810000
H        2.88330000      -1.28420000      -0.38240000
H        2.65120000       0.47020000      -0.31000000
H        1.39430000       0.05430000       1.78210000
H        0.75080000      -2.12680000       2.46240000
H        0.55650000      -4.02200000       1.08550000
H        2.01080000      -3.34890000      -1.09380000
H        0.41670000      -4.01410000      -1.27170000
H       -0.56750000      -1.94420000      -1.88660000
H        0.95450000      -2.06150000      -2.74660000
