17
Properties=species:S:1:pos:R:3 gdb_19937=T pbc="F F F"
C       -0.10330000       1.38470000      -0.52790000
C        1.12770000       1.72050000       0.35150000
N        1.33420000       0.27180000       0.62120000
C        1.39420000      -0.19290000       2.01060000
C       -0.03930000      -0.51770000       2.40070000
O       -0.93410000       0.58470000       2.20630000
C       -0.88090000      -0.43370000       1.19560000
C        0.00630000      -0.06060000       0.02580000
H       -1.02390000       1.91440000      -0.28230000
H        0.08220000       1.45350000      -1.60090000
H        1.97700000       2.19170000      -0.15560000
H        0.87290000       2.30250000       1.24390000
H        2.01300000      -1.09690000       2.10160000
H        1.83680000       0.57740000       2.65220000
H       -0.26610000      -1.17010000       3.24130000
H       -1.79040000      -1.01480000       1.06220000
H        0.02230000      -0.87380000      -0.71100000
