15
Properties=species:S:1:pos:R:3 gdb_132864=T pbc="F F F"
C        0.13370000       1.44970000       0.01940000
C        0.04360000      -0.04260000      -0.00000000
N        0.00290000      -0.67250000      -1.13500000
C       -0.07860000      -2.02470000      -1.14440000
F       -0.11570000      -2.59250000      -2.34890000
C       -0.12120000      -2.77580000      -0.02550000
N       -0.07870000      -2.11680000       1.18340000
C        0.00520000      -0.73200000       1.30910000
N        0.04830000      -0.06260000       2.40530000
H        1.02920000       1.76800000       0.56340000
H        0.15320000       1.83380000      -1.00050000
H       -0.71290000       1.87310000       0.57000000
H       -0.18630000      -3.85430000      -0.01580000
H       -0.10940000      -2.66000000       2.03240000
H        0.01380000      -0.66870000       3.22680000
