21
Properties=species:S:1:pos:R:3 gdb_101774=T pbc="F F F"
C        0.12780000       1.35950000       0.61070000
C       -0.16040000       0.04480000      -0.11010000
C        0.98120000      -0.35670000      -1.04960000
O        2.23150000      -0.39240000      -0.40650000
O       -0.36860000      -1.10840000       0.73680000
C       -0.53420000      -0.98870000       2.11200000
C        0.77510000      -1.06390000       2.90390000
C        0.64070000      -0.97430000       4.41070000
O        1.84960000      -1.19280000       2.36100000
H        1.05060000       1.29870000       1.19120000
H        0.26410000       2.14040000      -0.14350000
H       -0.69670000       1.67590000       1.25540000
H       -1.07600000       0.16080000      -0.71000000
H        0.71890000      -1.32840000      -1.49840000
H        1.05470000       0.37570000      -1.86300000
H        2.12640000      -0.90450000       0.41160000
H       -1.08130000      -0.08780000       2.42600000
H       -1.15020000      -1.83960000       2.43980000
H       -0.15130000      -1.63440000       4.77920000
H        1.59030000      -1.22800000       4.88270000
H        0.36350000       0.04830000       4.69340000
