14
Properties=species:S:1:pos:R:3 gdb_24878=T pbc="F F F"
N        0.03430000       1.30850000       0.00940000
C       -0.01130000       0.04000000       0.00320000
O        1.17400000      -0.70570000      -0.00730000
C        1.17010000      -2.06780000      -0.01420000
C        0.01980000      -2.78200000      -0.01140000
C       -1.22800000      -2.07530000      -0.00080000
C       -1.24280000      -0.72490000       0.00610000
C        2.46840000      -2.63500000      -0.02430000
C        3.56880000      -3.12300000      -0.03290000
H        0.99980000       1.63800000       0.00570000
H        0.06530000      -3.86170000      -0.01710000
H       -2.15560000      -2.63750000       0.00150000
H       -2.15630000      -0.14520000       0.01420000
H        4.54030000      -3.55260000      -0.04050000
