15
Properties=species:S:1:pos:R:3 gdb_46848=T pbc="F F F"
O        0.01990000       0.02330000       0.38060000
C        0.01680000       1.16140000       0.00620000
O       -1.15350000       1.77360000      -0.31620000
C       -1.20190000       3.10550000      -0.87470000
C        0.13300000       3.84430000      -0.74590000
O        1.12730000       2.91980000      -1.19800000
C        1.26020000       2.05520000      -0.07330000
C        1.18920000       3.00700000       1.11890000
C        0.51170000       4.07510000       0.71200000
H       -1.46310000       3.00100000      -1.93290000
H       -2.01460000       3.62740000      -0.35840000
H        0.14640000       4.73340000      -1.38200000
H        2.15900000       1.44690000      -0.16800000
H        1.55870000       2.77140000       2.10680000
H        0.20630000       4.93490000       1.29230000
