20
Properties=species:S:1:pos:R:3 gdb_80928=T pbc="F F F"
C       -0.08970000       1.57310000       0.00090000
C       -0.04140000       0.05670000      -0.00570000
C        1.22250000      -0.64880000      -0.57690000
O        1.99380000      -0.18040000       0.59740000
C        0.69690000      -0.67910000       1.16240000
C        0.49740000      -0.62000000       2.64140000
C        0.84760000      -1.89430000       0.22940000
C        0.14420000      -3.15550000      -0.04110000
N        1.54000000      -3.12530000       0.48860000
H        0.87980000       1.98440000       0.28840000
H       -0.35420000       1.95860000      -0.98960000
H       -0.84680000       1.93580000       0.70480000
H       -0.99430000      -0.39690000      -0.29980000
H        1.69120000      -0.55610000      -1.55780000
H        0.57350000       0.40970000       3.00320000
H       -0.49240000      -1.00690000       2.90450000
H        1.25310000      -1.22870000       3.14600000
H       -0.59290000      -3.54810000       0.65430000
H       -0.01300000      -3.44530000      -1.07760000
H        2.21130000      -3.33810000      -0.24530000
