21
Properties=species:S:1:pos:R:3 gdb_84868=T pbc="F F F"
C       -1.17440000       0.38600000       0.30230000
C        0.25130000       0.00130000      -0.12610000
C        0.52920000       0.48710000      -1.54040000
C        1.67710000       0.43990000      -2.21530000
C        3.04050000      -0.00700000      -1.71990000
C        3.11650000      -1.25870000      -0.87160000
C        2.90600000      -1.29780000       0.44980000
C        2.39620000      -0.15370000       1.21250000
C        1.25210000       0.47240000       0.91040000
H       -1.29530000       1.47530000       0.32830000
H       -1.91360000      -0.01550000      -0.39810000
H       -1.40480000      -0.00210000       1.29890000
H        0.31300000      -1.09470000      -0.15140000
H       -0.33770000       0.89150000      -2.06110000
H        1.66660000       0.80880000      -3.23890000
H        3.68790000      -0.14560000      -2.59200000
H        3.47550000       0.82400000      -1.14760000
H        3.44020000      -2.16520000      -1.37800000
H        3.12750000      -2.21370000       0.99640000
H        2.97650000       0.18540000       2.06980000
H        0.96080000       1.34850000       1.48770000
