19
Properties=species:S:1:pos:R:3 gdb_47364=T pbc="F F F"
O       -0.04380000      -0.07610000       0.14190000
C       -0.04850000       1.12820000       0.04970000
C       -1.33030000       1.95110000       0.07470000
C       -1.36330000       3.02540000      -1.02990000
C       -0.09130000       3.87900000      -1.02240000
C        1.17880000       3.00870000      -1.18450000
C        1.24000000       1.93880000      -0.05980000
C        1.23620000       2.38600000      -2.50650000
C        1.27180000       1.86770000      -3.59080000
H       -2.18050000       1.26790000       0.01270000
H       -1.37510000       2.44610000       1.05640000
H       -1.46250000       2.53870000      -2.00660000
H       -2.24600000       3.66010000      -0.90080000
H       -0.12700000       4.62520000      -1.82150000
H       -0.01210000       4.42480000      -0.07320000
H        2.05830000       3.65620000      -1.07920000
H        1.38390000       2.46240000       0.89550000
H        2.07670000       1.25250000      -0.20130000
H        1.31300000       1.40850000      -4.54760000
