18
Properties=species:S:1:pos:R:3 gdb_60955=T pbc="F F F"
C        0.86910000      -0.40270000      -1.15130000
C        0.02150000      -0.02970000       0.07410000
C       -0.01350000       1.49190000       0.17110000
O        0.66750000       2.14440000       0.91660000
N       -1.33920000      -0.51580000      -0.07240000
C       -2.24950000      -0.37350000       1.09390000
C       -2.71680000      -1.81160000       0.83000000
O       -3.60670000      -2.50170000       1.22030000
C       -1.56370000      -1.98060000      -0.17150000
H        1.89240000      -0.03840000      -1.02960000
H        0.90620000      -1.48880000      -1.27590000
H        0.44260000       0.02970000      -2.06180000
H        0.51290000      -0.40820000       0.98940000
H       -0.72370000       1.96180000      -0.54740000
H       -1.73550000      -0.28770000       2.06520000
H       -2.99790000       0.42140000       1.01480000
H       -1.81280000      -2.35620000      -1.16880000
H       -0.75780000      -2.60000000       0.25510000
