15
Properties=species:S:1:pos:R:3 gdb_32061=T pbc="F F F"
O        0.05800000       1.41960000       0.00780000
C        0.01150000       0.01270000       0.00190000
C       -1.42600000      -0.43200000       0.01280000
C       -2.50360000       0.39940000       0.02320000
N       -3.78710000      -0.08290000       0.03230000
C       -3.98110000      -1.36570000       0.03100000
C       -2.91810000      -2.37430000       0.02060000
O       -3.05680000      -3.58390000       0.01870000
N       -1.64830000      -1.78120000       0.01170000
H        0.97910000       1.69420000      -0.00110000
H        0.50480000      -0.41060000      -0.89060000
H        0.52080000      -0.41860000       0.88150000
H       -2.36960000       1.47090000       0.02450000
H       -4.99970000      -1.74650000       0.03820000
H       -0.87510000      -2.43510000       0.00420000
