14
Properties=species:S:1:pos:R:3 gdb_9470=T pbc="F F F"
O        0.20190000       1.48540000       0.07460000
C        0.01860000       0.12290000      -0.02470000
C       -1.45730000      -0.39160000      -0.18770000
N       -0.98390000      -1.19150000      -1.32670000
C        0.25030000      -0.55240000      -1.40880000
N        1.21510000      -0.47810000      -2.21550000
C        0.77400000      -0.60880000       1.06450000
O        1.47470000      -0.01430000       1.84570000
H        0.85740000       1.61290000       0.78060000
H       -1.89080000      -0.97640000       0.62960000
H       -2.11340000       0.44490000      -0.44670000
H       -1.54400000      -1.51150000      -2.10400000
H        1.04130000      -0.99740000      -3.07800000
H        0.64840000      -1.70840000       1.09420000
