17
Properties=species:S:1:pos:R:3 gdb_39905=T pbc="F F F"
C        0.05390000       1.47670000       0.00440000
O        1.19180000       0.58760000      -0.00160000
C       -0.10350000       0.03070000       0.01480000
C       -0.58760000      -0.90470000       1.11790000
C       -2.06000000      -1.02700000       0.68190000
O       -1.98950000      -1.00570000      -0.76740000
C       -0.61110000      -0.89780000      -1.07640000
O        0.05630000      -2.11200000      -0.79240000
C        0.12920000      -2.18870000       0.65360000
H       -0.08340000       2.04640000       0.92220000
H       -0.10130000       2.03540000      -0.91710000
H       -0.41540000      -0.60840000       2.15100000
H       -2.52620000      -1.96280000       1.01070000
H       -2.67200000      -0.18540000       1.02750000
H       -0.48320000      -0.64220000      -2.12590000
H        1.17980000      -2.21230000       0.96350000
H       -0.37020000      -3.10230000       0.99430000
