15
Properties=species:S:1:pos:R:3 gdb_123889=T pbc="F F F"
C       -0.21270000       1.19010000      -0.42080000
C        1.20430000       1.12060000       0.06560000
N        0.31540000      -0.01530000       0.18590000
C       -0.12090000      -0.50410000       1.39850000
N       -1.43550000      -0.75720000       1.52370000
C       -1.77830000      -1.32360000       2.66860000
C       -0.82510000      -1.61390000       3.64500000
N        0.45680000      -1.30150000       3.46570000
N        0.82490000      -0.73350000       2.32870000
H       -0.92260000       1.77120000       0.16190000
H       -0.43170000       1.12450000      -1.48210000
H        2.01910000       1.00570000      -0.64250000
H        1.45690000       1.65110000       0.97930000
H       -2.83270000      -1.54530000       2.82060000
H       -1.08180000      -2.08320000       4.58810000
