13
Properties=species:S:1:pos:R:3 gdb_25384=T pbc="F F F"
N       -0.16860000       1.30640000       0.00890000
C        0.01180000       0.04910000       0.00110000
N       -1.13420000      -0.78050000       0.00250000
C       -1.04320000      -2.12400000      -0.00520000
C       -2.35860000      -2.87090000      -0.00250000
O       -2.44370000      -4.06430000      -0.00850000
N        0.08860000      -2.76360000      -0.01440000
C        1.19160000      -1.93470000      -0.01560000
N        1.22400000      -0.64000000      -0.00880000
H        0.73700000       1.77270000       0.00680000
H       -2.02860000      -0.30540000       0.00960000
H       -3.25380000      -2.20850000       0.00570000
H        2.14720000      -2.45530000      -0.02330000
