19
Properties=species:S:1:pos:R:3 gdb_38396=T pbc="F F F"
C        0.02070000       1.45060000       0.11950000
C        1.34070000       0.75680000      -0.04700000
C        1.76060000       0.10830000       1.27860000
C        0.43940000      -0.72100000       1.27000000
C        0.47860000      -2.29150000       1.30150000
C       -0.49090000      -2.24400000       2.48820000
O        0.13810000      -1.47070000       3.51710000
C       -0.53390000      -0.77400000       2.45760000
C        0.03700000      -0.04710000      -0.04410000
H       -0.24510000       1.90200000       1.07330000
H       -0.33340000       2.00260000      -0.74530000
H        1.99890000       0.97260000      -0.87940000
H        2.63730000      -0.53690000       1.18780000
H        1.91120000       0.78640000       2.12500000
H        0.04060000      -2.73150000       0.40100000
H        1.44520000      -2.75890000       1.50730000
H       -1.23590000      -2.96750000       2.79760000
H       -1.31670000      -0.07700000       2.73600000
H       -0.47200000      -0.53710000      -0.86640000
