20
Properties=species:S:1:pos:R:3 gdb_87578=T pbc="F F F"
C        0.09190000       1.61200000      -0.06860000
C       -0.04360000       0.12060000       0.08670000
O        1.15320000      -0.67050000      -0.10450000
C        0.56830000      -0.62500000       1.18400000
C        1.31790000      -0.14040000       2.41150000
N        0.27560000      -0.04560000       3.47390000
C        0.89340000      -1.35530000       3.16120000
C        0.14540000      -1.91960000       1.93420000
C       -1.32760000      -2.27250000       2.07470000
H        0.97980000       1.97990000       0.45140000
H        0.17350000       1.88620000      -1.12560000
H       -0.78770000       2.11640000       0.34540000
H       -0.92340000      -0.31980000      -0.38590000
H        2.23610000       0.43110000       2.45720000
H        0.73730000       0.31420000       4.30920000
H        1.42550000      -1.91560000       3.91990000
H        0.71690000      -2.74780000       1.50090000
H       -1.87130000      -1.45290000       2.55100000
H       -1.78030000      -2.46850000       1.09680000
H       -1.45860000      -3.17330000       2.68430000
