13
Properties=species:S:1:pos:R:3 gdb_132195=T pbc="F F F"
C       -0.02010000       1.45820000       0.13000000
C       -0.01170000      -0.02290000      -0.05080000
N       -0.13140000      -0.61310000      -1.16520000
C       -0.11130000      -2.03980000      -1.23840000
O       -0.22490000      -2.60420000      -2.30060000
C        0.05330000      -2.73190000       0.04240000
C        0.16940000      -1.99590000       1.15020000
F        0.32170000      -2.46880000       2.36160000
O        0.14580000      -0.65750000       1.17540000
H        0.91570000       1.78830000       0.59200000
H       -0.14390000       1.93650000      -0.83990000
H       -0.83550000       1.75320000       0.79810000
H        0.07930000      -3.81100000       0.08140000
