14
Properties=species:S:1:pos:R:3 gdb_132286=T pbc="F F F"
C       -0.01910000       1.49930000       0.00090000
C        0.00020000       0.00070000      -0.05890000
N       -0.02340000      -0.60920000      -1.21270000
C       -0.00280000      -1.96070000      -1.16570000
F       -0.02770000      -2.53230000      -2.35950000
C        0.03920000      -2.73740000      -0.05090000
C        0.06530000      -2.09490000       1.23850000
O        0.10440000      -2.60150000       2.34150000
N        0.04230000      -0.67510000       1.11370000
H        0.87480000       1.87970000       0.50700000
H       -0.05370000       1.89630000      -1.01260000
H       -0.89260000       1.85510000       0.55780000
H        0.05340000      -3.81650000      -0.10280000
H        0.06000000      -0.17590000       1.99360000
