19
Properties=species:S:1:pos:R:3 gdb_58824=T pbc="F F F"
C       -0.15790000       1.55080000      -0.15990000
C       -0.02210000       0.02700000       0.00880000
C       -1.39130000      -0.65460000       0.12550000
C        0.78920000      -0.53920000      -1.12070000
O        0.21860000      -0.67350000      -2.42450000
C        0.83320000      -1.82020000      -1.83130000
C        2.39780000      -1.67980000      -2.00930000
O        2.66210000      -0.46590000      -2.70830000
C        2.36460000      -0.39430000      -1.31550000
H        0.82090000       2.03570000      -0.23140000
H       -0.71550000       1.78630000      -1.07180000
H       -0.69050000       1.98790000       0.69010000
H        0.54490000      -0.16590000       0.93110000
H       -1.96230000      -0.52750000      -0.79840000
H       -1.28740000      -1.72740000       0.31530000
H       -1.96630000      -0.22020000       0.94870000
H        0.25090000      -2.72830000      -1.73480000
H        3.13990000      -2.46780000      -2.03280000
H        3.07730000       0.08510000      -0.65510000
