16
Properties=species:S:1:pos:R:3 gdb_5315=T pbc="F F F"
C        0.02700000       1.39880000       0.03560000
N        0.33530000      -0.01930000      -0.01330000
C        0.01040000      -0.77080000       1.19380000
C        0.08370000      -0.62040000      -1.22510000
C       -0.31670000      -0.17870000      -2.45260000
N       -0.29990000      -1.25150000      -3.34280000
C        0.07970000      -2.25600000      -2.63560000
O        0.33910000      -1.95820000      -1.32580000
H        0.42420000       1.81710000       0.96390000
H        0.50700000       1.90770000      -0.80470000
H       -1.05550000       1.60490000      -0.00460000
H       -1.07200000      -0.79140000       1.40180000
H        0.36490000      -1.79670000       1.09450000
H        0.51720000      -0.30840000       2.04530000
H       -0.61260000       0.80980000      -2.75850000
H        0.20840000      -3.28620000      -2.92470000
