23
Properties=species:S:1:pos:R:3 gdb_122932=T pbc="F F F"
C       -0.02880000       1.61390000       0.04110000
C       -0.01100000       0.08370000      -0.00180000
C        0.72340000      -0.47740000      -1.22450000
C        0.73200000      -2.00810000      -1.27540000
C        1.47140000      -2.56610000      -2.49550000
C        1.41060000      -4.10350000      -2.56240000
O        0.08970000      -4.56580000      -2.64860000
C        2.22240000      -4.61410000      -3.73350000
O        1.73530000      -5.30400000      -4.59690000
H        0.98800000       2.02180000       0.06940000
H       -0.52510000       2.02870000      -0.84340000
H       -0.55980000       1.98340000       0.92390000
H        0.45940000      -0.30400000       0.91170000
H       -1.04110000      -0.29620000       0.00490000
H        0.25600000      -0.08580000      -2.13880000
H        1.75710000      -0.10260000      -1.23030000
H        1.19630000      -2.40360000      -0.36110000
H       -0.29620000      -2.38650000      -1.28770000
H        1.02960000      -2.16400000      -3.41610000
H        2.52330000      -2.24930000      -2.47600000
H        1.89580000      -4.50320000      -1.65110000
H        0.05310000      -5.09960000      -3.45800000
H        3.29050000      -4.31480000      -3.75970000
