19
Properties=species:S:1:pos:R:3 gdb_101312=T pbc="F F F"
C       -0.36500000       1.50730000      -0.81280000
O        0.09390000       0.32210000      -0.18640000
C        0.87050000      -0.51850000      -1.02680000
C        1.88060000      -1.25420000      -0.14980000
C        0.02300000      -1.50700000      -1.83020000
O       -0.45700000      -2.67530000      -1.17160000
C       -1.42810000      -1.73110000      -1.62420000
C       -2.21510000      -1.04080000      -0.54650000
O       -3.16430000      -0.33840000      -0.79110000
H        0.47840000       2.11280000      -1.17460000
H       -1.04210000       1.30030000      -1.65250000
H       -0.91520000       2.07300000      -0.05820000
H        1.40730000       0.10410000      -1.75940000
H        2.50950000      -0.53460000       0.37880000
H        1.35440000      -1.87460000       0.57870000
H        2.51770000      -1.90430000      -0.75690000
H        0.40100000      -1.70760000      -2.83530000
H       -2.02400000      -2.03150000      -2.48680000
H       -1.87610000      -1.26560000       0.48240000
