21
Properties=species:S:1:pos:R:3 gdb_114310=T pbc="F F F"
C        0.22860000       1.66700000      -0.50650000
C        0.36050000       0.19740000      -0.15670000
C        1.53500000      -0.70090000      -0.49440000
C        2.86940000       0.02350000      -0.23730000
C        2.49440000       0.13640000       1.27780000
C        2.53550000       1.43890000       2.05550000
O        1.80260000       1.19280000       3.25830000
C        1.12740000      -0.47090000       0.95910000
O        0.51430000      -1.36340000       1.82410000
H        1.18940000       2.18590000      -0.53560000
H       -0.22780000       1.78170000      -1.49640000
H       -0.41000000       2.19140000       0.21350000
H       -0.57310000      -0.34890000      -0.28550000
H        1.42240000      -1.58460000      -1.11080000
H        3.74780000      -0.60190000      -0.40590000
H        3.01230000       0.96500000      -0.77730000
H        3.05910000      -0.61410000       1.84070000
H        3.57540000       1.72630000       2.27800000
H        2.07960000       2.25910000       1.48540000
H        1.76220000       2.00950000       3.76420000
H        0.32670000      -0.86650000       2.63020000
