16
Properties=species:S:1:pos:R:3 gdb_55567=T pbc="F F F"
C       -0.28250000       1.55430000       0.01480000
C        0.17110000       0.10190000       0.00100000
O        1.32350000      -0.23870000      -0.01360000
N       -0.91070000      -0.79850000       0.00710000
C       -0.85980000      -2.19890000      -0.00230000
O        0.14900000      -2.84510000      -0.01700000
C       -2.28070000      -2.80680000       0.00790000
C       -2.29460000      -4.25780000       0.00210000
C       -2.32550000      -5.45740000      -0.00240000
H        0.59980000       2.19280000       0.01080000
H       -0.89730000       1.78050000      -0.86320000
H       -0.88120000       1.76910000       0.90670000
H       -1.83040000      -0.38330000       0.01960000
H       -2.81100000      -2.42360000       0.89100000
H       -2.82610000      -2.41650000      -0.86270000
H       -2.33740000      -6.51920000      -0.00620000
