16
Properties=species:S:1:pos:R:3 gdb_28611=T pbc="F F F"
O        0.87600000       1.11360000       0.12300000
C        0.22890000      -0.05830000      -0.01340000
N       -0.49000000      -0.44610000      -1.02560000
C       -0.92650000      -1.72380000      -0.67890000
C       -0.45080000      -2.07550000       0.55260000
N        0.30270000      -0.98370000       0.98000000
N       -0.62300000      -3.17080000       1.40690000
C       -1.02440000      -4.43350000       0.79970000
C        0.35440000      -4.27560000       1.33250000
H        0.69350000       1.61230000      -0.68350000
H       -1.57160000      -2.28870000      -1.33210000
H        0.75730000      -0.88330000       1.87140000
H       -1.76910000      -4.99600000       1.35390000
H       -1.13150000      -4.46470000      -0.28130000
H        1.15860000      -4.18140000       0.60750000
H        0.62860000      -4.71040000       2.28850000
