20
Properties=species:S:1:pos:R:3 gdb_115810=T pbc="F F F"
C       -0.25270000       1.29890000       0.03850000
O       -0.07540000      -0.10610000       0.02260000
C        0.70040000      -0.58330000       1.06700000
O        0.04350000      -0.37610000       2.31660000
C        0.25940000      -1.48030000       3.18570000
C        0.65910000      -2.65540000       2.30450000
C        1.39570000      -3.82480000       2.89940000
N       -0.32770000      -2.83720000       1.22030000
C        0.91550000      -2.07690000       0.96630000
H        0.71530000       1.82410000       0.04100000
H       -0.79600000       1.56070000      -0.87190000
H       -0.83010000       1.62030000       0.91250000
H        1.67350000      -0.05290000       1.07960000
H        1.06570000      -1.26240000       3.90430000
H       -0.66650000      -1.66040000       3.74290000
H        0.75870000      -4.37570000       3.60110000
H        1.71700000      -4.52420000       2.12080000
H        2.28620000      -3.49690000       3.44630000
H       -0.21820000      -3.77000000       0.82640000
H        1.66710000      -2.46470000       0.28770000
