17
Properties=species:S:1:pos:R:3 gdb_30804=T pbc="F F F"
C       -0.08560000       1.44330000       0.06980000
C       -0.03000000      -0.03890000      -0.02200000
N        0.00890000      -0.77140000      -1.09570000
C        0.04050000      -2.07620000      -0.62950000
N        0.03110000      -3.15460000      -1.50010000
C        0.02440000      -2.07260000       0.73350000
C        0.08190000      -3.15310000       1.75230000
O        1.04260000      -4.15550000       1.40310000
O       -0.01850000      -0.74350000       1.12770000
H        0.76580000       1.83710000       0.63480000
H       -0.07040000       1.86200000      -0.93660000
H       -0.99770000       1.77250000       0.57880000
H        0.42900000      -2.92980000      -2.40150000
H        0.43810000      -3.98690000      -1.09410000
H        0.28350000      -2.71290000       2.73940000
H       -0.86440000      -3.70210000       1.82870000
H        1.89120000      -3.70830000       1.30860000
