18
Properties=species:S:1:pos:R:3 gdb_4944=T pbc="F F F"
C       -0.01250000       1.54360000      -0.05450000
C       -0.02930000       0.01450000       0.04160000
N       -1.36510000      -0.55050000       0.04110000
C       -2.10260000      -0.86070000       1.14850000
C       -3.35840000      -1.25980000       0.74590000
C       -3.38810000      -1.18720000      -0.67640000
N       -4.50940000      -1.45340000      -1.48960000
C       -2.14690000      -0.74370000      -1.08440000
H        1.01800000       1.91370000      -0.05690000
H       -0.50140000       1.88120000      -0.97270000
H       -0.53900000       1.99060000       0.79360000
H        0.52880000      -0.42180000      -0.79460000
H        0.46870000      -0.31250000       0.95990000
H       -1.67360000      -0.77610000       2.13490000
H       -4.16330000      -1.58000000       1.39050000
H       -5.06800000      -2.21440000      -1.12360000
H       -4.24750000      -1.67980000      -2.44090000
H       -1.75360000      -0.55300000      -2.07050000
