21
Properties=species:S:1:pos:R:3 gdb_102599=T pbc="F F F"
C        0.03750000       1.49930000      -0.01360000
C        0.01910000       0.04300000      -0.02810000
C        0.01490000      -1.16150000      -0.03640000
C       -0.00540000      -2.62090000      -0.03400000
C       -1.42340000      -3.24000000      -0.01000000
C       -2.21740000      -2.79980000      -1.24020000
O       -3.54250000      -3.33260000      -1.14770000
C       -1.32800000      -4.77310000       0.08890000
O       -2.55360000      -5.39740000       0.39930000
H        0.85760000       1.88000000       0.60520000
H        0.16730000       1.90860000      -1.02170000
H       -0.89610000       1.90580000       0.39070000
H        0.53860000      -2.99860000      -0.91180000
H        0.54660000      -2.98990000       0.83960000
H       -1.94970000      -2.87920000       0.88190000
H       -2.24640000      -1.70410000      -1.29490000
H       -1.71530000      -3.17130000      -2.14840000
H       -4.00740000      -3.14470000      -1.96790000
H       -0.89860000      -5.16270000      -0.85370000
H       -0.62850000      -5.04430000       0.88910000
H       -3.21630000      -4.99210000      -0.17630000
