15
Properties=species:S:1:pos:R:3 gdb_46138=T pbc="F F F"
N       -0.08740000       1.27350000      -0.33260000
C       -0.00890000       0.06810000       0.02870000
C       -1.26210000      -0.77290000       0.16730000
O       -1.14620000      -1.82460000       1.11650000
C        0.00820000      -2.59780000       0.85750000
C        1.24760000      -1.71830000       1.04360000
O        1.18820000      -0.57660000       0.18700000
C        0.03570000      -3.73650000       1.78050000
N        0.10720000      -4.63830000       2.49760000
H        0.84440000       1.67860000      -0.44550000
H       -2.08630000      -0.13750000       0.48790000
H       -1.50680000      -1.18770000      -0.82460000
H       -0.01140000      -2.98740000      -0.17450000
H        1.30330000      -1.39640000       2.08990000
H        2.16180000      -2.25490000       0.78130000
