15
Properties=species:S:1:pos:R:3 gdb_7427=T pbc="F F F"
C        0.00940000       1.55840000      -0.13270000
C        0.07360000       0.02470000       0.00880000
O        0.76440000      -0.34850000       1.17460000
C       -1.32270000      -0.56740000       0.02550000
O       -1.77250000      -1.09280000       1.02320000
C       -2.15750000      -0.49690000      -1.26970000
N       -3.39410000      -1.01390000      -1.10810000
O       -1.70420000      -0.02960000      -2.29720000
H        1.02800000       1.94900000      -0.07590000
H       -0.43480000       1.84200000      -1.08830000
H       -0.56910000       1.99450000       0.68780000
H        0.58960000      -0.37990000      -0.87340000
H        0.10720000      -0.74030000       1.76820000
H       -3.65180000      -1.40100000      -0.21480000
H       -4.02770000      -1.05050000      -1.88860000
