17
Properties=species:S:1:pos:R:3 gdb_45965=T pbc="F F F"
O        0.03140000       0.05210000      -0.57880000
C        0.01090000       1.18060000      -0.14370000
C       -1.31160000       1.89060000       0.14570000
C       -1.23050000       3.15560000       1.01980000
C       -0.10190000       4.07840000       0.57190000
O       -0.27410000       5.25450000       0.34440000
C        1.23620000       3.43700000       0.40710000
C        1.68690000       2.41410000       1.42480000
C        1.28340000       1.94890000       0.04780000
H       -1.70350000       2.16640000      -0.84330000
H       -2.01220000       1.15670000       0.55260000
H       -2.16250000       3.72280000       0.97950000
H       -1.06630000       2.88000000       2.06890000
H        1.98760000       4.08630000      -0.02680000
H        2.74450000       2.38130000       1.65800000
H        1.03940000       2.19630000       2.26540000
H        2.08710000       1.61100000      -0.59670000
