15
Properties=species:S:1:pos:R:3 gdb_45869=T pbc="F F F"
O        0.02110000      -0.00030000       0.24230000
C       -0.03600000       1.17970000       0.01680000
C       -1.33470000       1.94490000      -0.18450000
N       -1.27690000       3.19730000      -0.92240000
C       -0.14330000       3.60980000      -1.32280000
N        1.08900000       3.00770000      -1.14850000
C        1.25230000       2.03900000      -0.06280000
C        1.49910000       2.66520000       1.23880000
C        1.68160000       3.18940000       2.30510000
H       -2.04320000       1.26390000      -0.66990000
H       -1.75300000       2.13850000       0.81470000
H       -0.09800000       4.52560000      -1.91390000
H        1.89030000       3.59910000      -1.31720000
H        2.06980000       1.35360000      -0.30610000
H        1.84930000       3.64900000       3.24820000
