25
Properties=species:S:1:pos:R:3 gdb_123161=T pbc="F F F"
C        0.02400000       1.46660000      -0.13520000
C       -0.04890000      -0.04750000       0.07620000
C       -1.46330000      -0.59050000      -0.07690000
O       -1.44220000      -1.98500000       0.13380000
C       -2.71070000      -2.59080000       0.01690000
C       -2.56100000      -4.08900000       0.25860000
C       -3.88010000      -4.82570000       0.17460000
C       -4.42320000      -5.27370000      -1.16130000
C       -3.91790000      -6.29230000      -0.16890000
H        1.04910000       1.83100000      -0.02160000
H       -0.31830000       1.74720000      -1.13750000
H       -0.60020000       2.00190000       0.58900000
H        0.60070000      -0.56370000      -0.64010000
H        0.31770000      -0.31070000       1.07510000
H       -2.14090000      -0.10260000       0.64660000
H       -1.85510000      -0.35970000      -1.08370000
H       -3.41390000      -2.15420000       0.74850000
H       -3.13740000      -2.40630000      -0.98390000
H       -1.85830000      -4.49470000      -0.47940000
H       -2.10060000      -4.23850000       1.24310000
H       -4.62460000      -4.49470000       0.89540000
H       -5.49130000      -5.21040000      -1.33770000
H       -3.81710000      -5.08330000      -2.04140000
H       -2.97550000      -6.78520000      -0.38460000
H       -4.64150000      -6.92270000       0.33600000
