17
Properties=species:S:1:pos:R:3 gdb_24261=T pbc="F F F"
C       -0.00410000       1.48140000       0.10690000
C        1.30670000       0.72730000       0.00470000
N        2.07060000       0.34220000       1.18980000
C        1.18450000      -0.44730000       1.96840000
C        0.04010000      -0.75060000       1.27770000
N       -0.72540000      -1.57670000       2.06020000
C       -0.06060000      -1.78980000       3.24820000
C        1.13730000      -1.09300000       3.22900000
C       -0.02200000      -0.03670000      -0.01330000
H       -0.29660000       1.91290000       1.05800000
H       -0.28870000       2.05660000      -0.76830000
H        1.89390000       0.85070000      -0.89880000
H        2.47950000       1.13230000       1.67530000
H       -1.61720000      -1.97070000       1.82010000
H       -0.47850000      -2.43520000       4.00390000
H        1.86880000      -1.07940000       4.02190000
H       -0.39800000      -0.50100000      -0.91880000
