17
Properties=species:S:1:pos:R:3 gdb_18151=T pbc="F F F"
C        0.05720000       1.61380000      -0.22160000
N        0.26560000       0.18640000      -0.04050000
C        1.49340000      -0.49830000      -0.34980000
C        2.75540000       0.30560000       0.03360000
C        2.22680000       0.34140000       1.51130000
C        2.10550000       1.64940000       2.24840000
O        1.10620000       2.04720000       2.79200000
C        0.96000000      -0.41760000       1.06650000
H        0.95240000       2.23990000      -0.10130000
H       -0.33310000       1.77830000      -1.23100000
H       -0.68600000       1.95490000       0.50270000
H        1.47380000      -1.32300000      -1.05420000
H        3.67480000      -0.27330000      -0.06620000
H        2.89160000       1.26610000      -0.47230000
H        2.87000000      -0.30030000       2.12800000
H        3.04950000       2.24460000       2.28050000
H        0.43940000      -1.15850000       1.66280000
