18
Properties=species:S:1:pos:R:3 gdb_83246=T pbc="F F F"
N        0.01830000       1.44010000       0.12520000
C        0.01480000       0.01140000      -0.02140000
C       -1.31210000      -0.72700000      -0.03590000
O       -2.46320000       0.07930000      -0.00800000
C       -3.11720000       0.16290000      -1.26030000
C       -2.14880000       0.49730000      -2.38580000
N       -2.65780000       1.27520000      -3.39930000
N       -0.92800000       0.12160000      -2.40190000
C       -0.48850000      -0.67190000      -1.29480000
H        0.30240000       1.88320000      -0.74340000
H       -0.92660000       1.75810000       0.31790000
H        0.82790000      -0.50220000       0.48810000
H       -1.42300000      -1.65080000       0.52770000
H       -3.63030000      -0.78260000      -1.50150000
H       -3.87640000       0.94410000      -1.16000000
H       -3.65580000       1.28040000      -3.53640000
H       -2.10870000       1.28370000      -4.24680000
H        0.03910000      -1.57250000      -1.59640000
