21
Properties=species:S:1:pos:R:3 gdb_121585=T pbc="F F F"
C       -0.06390000       1.54720000      -0.04640000
C        0.04410000       0.02030000      -0.01700000
C        0.75880000      -0.50390000       1.23270000
C        0.86230000      -2.02800000       1.25600000
C        1.56820000      -2.56720000       2.47670000
O        2.03890000      -1.86080000       3.34440000
C        1.67960000      -4.08430000       2.61490000
N        2.44710000      -4.44690000       3.68360000
N        1.08910000      -4.81760000       1.74680000
H        0.92700000       2.01420000      -0.02490000
H       -0.57670000       1.89460000      -0.94870000
H       -0.62220000       1.92080000       0.81930000
H       -0.96040000      -0.41990000      -0.07350000
H        0.57540000      -0.32750000      -0.91300000
H        1.76390000      -0.07030000       1.29680000
H        0.23330000      -0.16180000       2.13260000
H       -0.12180000      -2.50880000       1.20020000
H        1.39130000      -2.41200000       0.37360000
H        2.67620000      -3.70820000       4.33190000
H        2.41710000      -5.39140000       4.02730000
H        1.22240000      -5.81300000       1.93950000
