18
Properties=species:S:1:pos:R:3 gdb_7453=T pbc="F F F"
C        0.01620000       1.54930000      -0.03560000
C        0.00990000       0.03450000       0.14120000
O        0.59620000      -0.34930000       1.38150000
C       -1.42920000      -0.54110000      -0.01600000
O       -2.01480000      -0.04870000      -1.19090000
C       -1.43410000      -2.07900000      -0.06610000
C       -1.10250000      -2.86780000       1.17150000
O       -1.72610000      -2.60710000      -1.12100000
H        1.03840000       1.92950000       0.04320000
H       -0.40200000       1.82430000      -1.00470000
H       -0.59350000       2.02980000       0.74120000
H        0.64030000      -0.42460000      -0.62970000
H        0.21530000       0.20600000       2.07100000
H       -2.01360000      -0.21770000       0.86300000
H       -2.12750000      -0.83420000      -1.75480000
H       -0.13580000      -2.54790000       1.56870000
H       -1.84610000      -2.65540000       1.94900000
H       -1.10780000      -3.93460000       0.94460000
