23
Properties=species:S:1:pos:R:3 gdb_92546=T pbc="F F F"
C       -0.30870000       1.52930000       0.04050000
C       -0.02630000       0.02070000       0.00790000
C        0.74890000      -0.38090000      -1.26070000
C        1.12610000      -1.86460000      -1.26240000
C        2.41790000      -2.20450000      -2.06020000
C        3.22590000      -2.16320000      -0.73270000
C        1.87090000      -2.27170000       0.04360000
C        1.61150000      -1.42590000       1.24710000
C        0.73630000      -0.41940000       1.24010000
H        0.62590000       2.10160000       0.05980000
H       -0.87740000       1.84340000      -0.84090000
H       -0.88640000       1.80510000       0.92930000
H       -0.99950000      -0.49580000      -0.00380000
H        0.16780000      -0.13640000      -2.15830000
H        1.66050000       0.23030000      -1.30360000
H        0.24610000      -2.47060000      -1.49980000
H        2.38460000      -3.21100000      -2.48670000
H        2.71020000      -1.50530000      -2.84860000
H        3.96180000      -2.95370000      -0.56730000
H        3.71100000      -1.19760000      -0.56850000
H        1.67930000      -3.32510000       0.28200000
H        2.14950000      -1.67270000       2.16090000
H        0.55420000       0.14450000       2.15330000
