20
Properties=species:S:1:pos:R:3 gdb_85683=T pbc="F F F"
C       -1.16200000       0.93030000      -0.08470000
C       -0.07370000      -0.13210000      -0.09230000
C        1.24410000       0.14720000      -0.87360000
C        2.06080000      -0.50600000       0.29310000
C        3.29120000       0.12310000       0.72250000
C        4.30090000       0.66680000       1.08620000
C        0.79040000      -0.35300000       1.16050000
C        0.67470000       0.33060000       2.46370000
N        0.51100000      -1.13750000       2.35090000
H       -0.75910000       1.90510000       0.20870000
H       -1.61150000       1.03660000      -1.07790000
H       -1.96870000       0.67550000       0.61260000
H       -0.49450000      -1.09420000      -0.41300000
H        1.35410000      -0.30710000      -1.85950000
H        1.45150000       1.21760000      -0.94460000
H        2.23140000      -1.56950000       0.09070000
H        5.19840000       1.13690000       1.40310000
H        1.57420000       0.64820000       2.98320000
H       -0.20490000       0.94200000       2.64920000
H       -0.47670000      -1.38360000       2.38450000
