16
Properties=species:S:1:pos:R:3 gdb_82714=T pbc="F F F"
C       -0.03110000       1.58520000       0.02220000
C        0.03410000       0.07540000      -0.03300000
C        0.75790000      -0.63460000      -1.20830000
O        2.05810000      -0.04680000      -1.46840000
C        2.68640000      -0.80220000      -0.38370000
C        1.37600000      -1.59020000      -0.17150000
N        0.98120000      -0.63530000       0.94340000
C        2.30460000      -0.03270000       0.89800000
O        2.79300000       0.80500000       1.59060000
H        0.92820000       2.03260000      -0.24680000
H       -0.78970000       1.94670000      -0.67950000
H       -0.30440000       1.92180000       1.02620000
H       -0.95680000      -0.36990000       0.11290000
H        0.22860000      -0.87030000      -2.13310000
H        3.69120000      -1.14450000      -0.63200000
H        1.23970000      -2.65870000      -0.03630000
