22
Properties=species:S:1:pos:R:3 gdb_40828=T pbc="F F F"
C        1.36460000       0.07030000      -0.36390000
C        0.60330000      -1.06490000      -0.95400000
N       -0.04310000      -0.13210000      -0.03650000
C       -0.33170000      -0.63560000       1.30450000
C       -0.39170000       0.52380000       2.30580000
C       -0.85250000       0.02110000       3.67670000
O       -2.10130000      -0.64410000       3.60380000
C       -2.05400000      -1.77030000       2.74540000
C       -1.67040000      -1.38280000       1.31470000
H        2.10600000      -0.17470000       0.39580000
H        1.59380000       0.95200000      -0.95530000
H        0.26480000      -1.02970000      -1.98550000
H        0.84000000      -2.06240000      -0.58550000
H        0.46010000      -1.33850000       1.63500000
H        0.58790000       1.00770000       2.39530000
H       -1.09820000       1.27410000       1.93360000
H       -0.09050000      -0.65470000       4.10500000
H       -0.98860000       0.85270000       4.37400000
H       -1.33710000      -2.51340000       3.13870000
H       -3.05010000      -2.22100000       2.77610000
H       -2.44170000      -0.72900000       0.89230000
H       -1.61680000      -2.27960000       0.68640000
