13
Properties=species:S:1:pos:R:3 gdb_24822=T pbc="F F F"
O       -0.00670000      -0.06890000       0.00390000
C       -0.01570000       1.14850000       0.00990000
C       -1.23990000       1.95460000       0.02990000
C       -1.20090000       3.29470000       0.03580000
O       -0.04860000       4.00750000       0.02410000
C        1.11730000       3.33180000       0.00550000
C        1.21890000       1.98080000      -0.00230000
C        2.49420000       1.36000000      -0.02200000
C        3.57220000       0.82550000      -0.03880000
H       -2.19180000       1.43850000       0.03990000
H       -2.06250000       3.94980000       0.05020000
H        1.96600000       4.00330000      -0.00240000
H        4.51760000       0.34220000      -0.05340000
