15
Properties=species:S:1:pos:R:3 gdb_35454=T pbc="F F F"
N        0.02890000      -1.18700000      -0.09030000
C        0.01290000      -0.03200000      -0.04620000
C        0.00640000       1.42150000       0.05100000
C       -0.22220000       2.05770000       1.47300000
C        1.13670000       2.75540000       1.37150000
C        2.23160000       1.75920000       1.17220000
C        1.38090000       2.13140000      -0.02170000
C        1.90900000       2.72430000      -1.20450000
N        2.31900000       3.21300000      -2.17040000
H       -0.69140000       1.83240000      -0.68050000
H       -1.07060000       2.74200000       1.46530000
H       -0.33360000       1.35180000       2.29880000
H        1.33790000       3.77770000       1.66300000
H        3.23730000       2.16300000       1.14700000
H        2.15420000       0.75340000       1.57640000
