18
Properties=species:S:1:pos:R:3 gdb_11115=T pbc="F F F"
C        0.00890000       1.53590000      -0.00560000
C        0.03500000       0.01150000       0.07310000
N       -1.30420000      -0.54560000       0.13390000
C       -2.09250000      -0.36340000       1.36760000
C       -2.67370000      -1.79190000       1.15280000
C       -1.44500000      -2.00910000       0.22170000
C       -2.83080000      -2.65600000       2.30620000
N       -2.94700000      -3.34330000       3.22880000
H        1.02520000       1.93440000      -0.07330000
H       -0.55640000       1.86690000      -0.88140000
H       -0.45860000       1.97080000       0.88430000
H        0.52230000      -0.39910000      -0.81960000
H        0.64230000      -0.30900000       0.94300000
H       -1.47750000      -0.31460000       2.28050000
H       -2.80050000       0.46950000       1.36150000
H       -3.60400000      -1.76050000       0.58260000
H       -1.61840000      -2.52370000      -0.72780000
H       -0.61900000      -2.50120000       0.75900000
