20
Properties=species:S:1:pos:R:3 gdb_82211=T pbc="F F F"
C        0.08030000       1.54360000      -0.01890000
C        0.01750000       0.01310000      -0.00140000
C        0.69150000      -0.64110000      -1.21070000
O        2.08450000      -0.35660000      -1.36310000
C        1.71550000      -1.59730000      -0.75800000
C        1.72750000      -1.59330000       0.75720000
N        2.12690000      -0.29510000       1.34830000
C        0.69380000      -0.62960000       1.23120000
C       -0.12630000      -0.82570000       2.48110000
H        1.12330000       1.86630000      -0.02670000
H       -0.41930000       1.94890000      -0.90470000
H       -0.40920000       1.96910000       0.86340000
H       -1.03210000      -0.31140000      -0.00600000
H        0.13860000      -0.74530000      -2.14290000
H        1.99330000      -2.49420000      -1.30500000
H        1.94990000      -2.51350000       1.28790000
H        2.42260000      -0.45370000       2.31040000
H       -0.41770000       0.13660000       2.91880000
H       -1.04440000      -1.38620000       2.27310000
H        0.44030000      -1.37790000       3.23890000
