15
Properties=species:S:1:pos:R:3 gdb_128152=T pbc="F F F"
C       -0.09140000       1.47230000       0.08920000
N       -0.03090000       0.04560000      -0.19030000
C       -1.16440000      -0.71460000      -0.07240000
C       -1.27810000      -2.10440000      -0.00550000
N       -2.63750000      -2.28840000       0.04280000
N       -3.29910000      -1.13810000       0.01500000
N       -2.41270000      -0.17360000      -0.05130000
C       -0.32120000      -3.12570000       0.01530000
C        0.52180000      -3.98840000       0.03890000
H        0.87700000       1.91600000      -0.15250000
H       -0.85480000       1.93320000      -0.54060000
H       -0.33780000       1.69930000       1.13630000
H        0.81220000      -0.42260000       0.10450000
H       -3.14190000      -3.15910000       0.09880000
H        1.26170000      -4.75000000       0.04950000
