25
Properties=species:S:1:pos:R:3 gdb_65557=T pbc="F F F"
C        0.10980000       1.59170000       0.00350000
C       -0.02260000       0.06560000       0.01550000
C       -1.48800000      -0.38400000       0.09140000
C       -2.38160000       0.08130000      -1.04200000
C       -2.48550000      -0.70390000      -2.32790000
C       -3.64880000      -0.66880000      -1.36760000
C        0.87190000      -0.60270000      -1.08180000
C        1.97250000      -0.84210000      -0.01460000
C        0.91680000      -0.57420000       1.09070000
H        1.16110000       1.89810000       0.02350000
H       -0.33970000       2.02900000      -0.89390000
H       -0.38040000       2.03510000       0.87840000
H       -1.51670000      -1.48140000       0.13360000
H       -1.90800000      -0.03410000       1.04650000
H       -2.45050000       1.15990000      -1.15120000
H       -2.57050000      -0.16150000      -3.26330000
H       -1.92590000      -1.63000000      -2.40520000
H       -3.86350000      -1.56930000      -0.80090000
H       -4.53000000      -0.10030000      -1.64430000
H        0.44170000      -1.54150000      -1.44140000
H        1.13300000       0.00950000      -1.94950000
H        2.45700000      -1.82120000      -0.01110000
H        2.75420000      -0.07840000      -0.04020000
H        1.21220000       0.06280000       1.92970000
H        0.49860000      -1.50210000       1.49340000
