16
Properties=species:S:1:pos:R:3 gdb_44548=T pbc="F F F"
O        0.07590000       0.26300000       0.65720000
C       -0.03160000       1.32670000       0.12690000
C       -1.32280000       2.10290000      -0.16670000
C       -0.86470000       3.42240000      -0.77610000
C       -0.65560000       4.63090000       0.15640000
N        0.06750000       4.10720000       1.33150000
C        0.83000000       4.47090000       0.11750000
C        0.69550000       3.28350000      -0.84790000
O        1.05760000       2.00820000      -0.35510000
H       -1.93090000       1.50370000      -0.85000000
H       -1.87470000       2.21330000       0.76810000
H       -1.33430000       3.67650000      -1.72570000
H       -1.25500000       5.53030000       0.21530000
H        0.18140000       4.86560000       2.00140000
H        1.62240000       5.20730000       0.15560000
H        1.15800000       3.44350000      -1.82280000
