14
Properties=species:S:1:pos:R:3 gdb_108713=T pbc="F F F"
O        0.05040000       1.41110000       0.00830000
C       -0.00100000       0.00640000       0.00220000
C       -1.42890000      -0.42850000       0.01250000
C       -2.54670000       0.33450000       0.02290000
C       -3.69790000      -0.56000000       0.02980000
O       -4.88470000      -0.34100000       0.03910000
C       -3.08410000      -2.01330000       0.02180000
O       -3.64600000      -3.07370000       0.02350000
N       -1.71020000      -1.79590000       0.01130000
H        0.97210000       1.68370000      -0.00240000
H        0.48680000      -0.42730000      -0.88900000
H        0.50240000      -0.43550000       0.88070000
H       -2.56940000       1.41110000       0.02550000
H       -1.02760000      -2.53610000       0.00500000
