21
Properties=species:S:1:pos:R:3 gdb_63467=T pbc="F F F"
C       -0.02240000       1.47910000      -0.07420000
C       -0.07210000      -0.02080000       0.15860000
C       -1.28440000      -0.66300000      -0.49010000
O        1.18150000      -0.70350000      -0.02730000
C        0.64680000      -0.64130000       1.30860000
C        1.41650000       0.18380000       2.31970000
C        0.20670000      -1.99330000       1.81550000
C        0.81570000      -2.66730000       2.97170000
O       -0.45870000      -2.02980000       3.08260000
H        0.94710000       1.90170000       0.18820000
H       -0.19870000       1.69180000      -1.13410000
H       -0.80150000       1.99130000       0.50070000
H       -1.27830000      -0.45100000      -1.56470000
H       -1.31740000      -1.74430000      -0.36590000
H       -2.20500000      -0.24010000      -0.07370000
H        1.50480000       1.22860000       2.02700000
H        0.90710000       0.13920000       3.28670000
H        2.42800000      -0.21680000       2.44070000
H       -0.23570000      -2.63740000       1.06010000
H        0.79860000      -3.75540000       3.01590000
H        1.62390000      -2.19440000       3.52380000
