19
Properties=species:S:1:pos:R:3 gdb_78540=T pbc="F F F"
C       -0.12580000       1.62860000       0.03270000
C        0.12110000       0.13180000      -0.05010000
C        0.69260000      -0.71780000      -1.18040000
C        2.03770000      -0.21080000      -1.80170000
C        2.53650000      -0.52290000      -3.17250000
O        2.40640000       1.04490000      -1.19650000
C        2.66930000      -0.17300000      -0.48530000
C        1.35510000      -0.69620000       0.19160000
O        1.41060000      -1.75200000       1.08590000
H        0.70170000       2.21100000      -0.36020000
H       -1.03290000       1.88450000      -0.52700000
H       -0.29790000       1.91920000       1.07600000
H       -0.71480000      -0.43230000       0.36990000
H        0.12430000      -1.52480000      -1.62610000
H        1.94240000      -0.00060000      -3.93140000
H        3.57930000      -0.21170000      -3.27690000
H        2.46730000      -1.59700000      -3.37300000
H        3.68330000      -0.37400000      -0.15610000
H        1.45480000      -1.38830000       1.97770000
