17
Properties=species:S:1:pos:R:3 gdb_24152=T pbc="F F F"
C        0.15520000       1.25590000       0.69410000
C       -0.07490000      -0.06660000      -0.00050000
C       -1.40490000      -0.50500000      -0.43740000
O       -0.45540000      -0.00360000      -1.38160000
C        1.44350000       1.90930000       0.28540000
C        1.97830000       2.02520000      -0.97410000
N        3.15970000       2.71340000      -0.80780000
C        3.28850000       2.98120000       0.52130000
N        2.27380000       2.51060000       1.20910000
H       -0.69780000       1.91400000       0.48510000
H        0.18080000       1.10110000       1.77810000
H        0.67130000      -0.83480000       0.20830000
H       -1.62880000      -1.56770000      -0.51970000
H       -2.26680000       0.13640000      -0.25650000
H        1.63430000       1.68770000      -1.93690000
H        3.80820000       2.96330000      -1.53520000
H        4.13660000       3.51470000       0.92380000
