17
Properties=species:S:1:pos:R:3 gdb_113037=T pbc="F F F"
O        0.03240000       1.47650000       0.20790000
C        0.11500000       0.09060000      -0.01880000
C       -1.27970000      -0.55110000      -0.10590000
N       -2.05470000      -0.19690000       1.10580000
C       -3.45060000       0.08660000       0.73320000
C       -3.34910000       0.35090000      -0.75740000
C       -2.15300000      -0.00620000      -1.20650000
C       -4.37110000      -1.03570000       1.02130000
N       -5.07030000      -1.92250000       1.26970000
H       -0.63150000       1.57380000       0.90500000
H        0.65290000      -0.06170000      -0.96130000
H        0.68910000      -0.42090000       0.77260000
H       -1.15080000      -1.64030000      -0.22900000
H       -1.98280000      -0.88920000       1.84050000
H       -3.82970000       0.95880000       1.28310000
H       -4.17780000       0.75130000      -1.32490000
H       -1.81090000       0.06670000      -2.23110000
