17
Properties=species:S:1:pos:R:3 gdb_85718=T pbc="F F F"
C        0.02120000       1.54390000       0.07850000
N       -0.02240000       0.09920000       0.09250000
C       -1.27930000      -0.58370000       0.42830000
C       -0.45630000      -1.68220000       1.16530000
C       -0.20630000      -2.88170000       0.38610000
N       -0.03010000      -3.84830000      -0.22250000
C        0.70320000      -0.61590000       1.16230000
C        2.06840000      -1.01360000       0.88270000
C        3.20170000      -1.34670000       0.66430000
H        1.04850000       1.87520000      -0.10070000
H       -0.60260000       1.92250000      -0.73720000
H       -0.33200000       1.99720000       1.02420000
H       -1.91290000      -0.02960000       1.14020000
H       -1.88100000      -0.89670000      -0.42850000
H       -0.81260000      -1.95960000       2.15780000
H        0.66530000      -0.07380000       2.12440000
H        4.19810000      -1.65140000       0.45730000
