14
Properties=species:S:1:pos:R:3 gdb_129003=T pbc="F F F"
N       -0.09490000       1.32930000       0.01000000
N        1.07310000       1.97190000       0.00260000
H        0.97720000       2.97630000       0.00920000
C        2.31260000       1.41720000      -0.01210000
C        2.47140000       0.05040000      -0.02130000
C        1.30290000      -0.71780000      -0.01470000
N        1.11370000      -2.02900000      -0.02030000
C       -0.25900000      -2.17690000      -0.00820000
C       -0.97950000      -0.99580000       0.00520000
C        0.01270000       0.01430000       0.00160000
H        3.13210000       2.12370000      -0.01580000
H        3.45910000      -0.39320000      -0.03310000
H       -0.67610000      -3.17750000      -0.01000000
H       -2.04950000      -0.86480000       0.01590000
