14
Properties=species:S:1:pos:R:3 gdb_128110=T pbc="F F F"
C       -0.01190000       1.46900000       0.07110000
N        0.09060000       0.01960000       0.00450000
C        0.64560000      -0.72290000       0.97430000
C        0.72700000      -2.10010000       1.14990000
C        1.47410000      -2.21910000       2.35530000
N        1.81260000      -1.07070000       2.86920000
O        1.26920000      -0.09960000       1.97150000
C        0.18230000      -3.08270000       0.30510000
N       -0.28560000      -3.86060000      -0.41790000
H        0.95370000       1.89690000       0.34870000
H       -0.28840000       1.84210000      -0.91590000
H       -0.76130000       1.80000000       0.80030000
H       -0.46940000      -0.47800000      -0.66870000
H        1.77160000      -3.12870000       2.85800000
