16
Properties=species:S:1:pos:R:3 gdb_15279=T pbc="F F F"
C        0.01550000      -1.14210000      -0.39120000
C        0.02270000       0.00710000      -0.03950000
C        0.05650000       1.40180000       0.38900000
C        1.42310000       2.03870000       0.18900000
C        1.80530000       2.63320000      -1.13130000
C        1.55690000       3.55250000       0.05910000
C        0.40300000       4.40230000       0.09060000
C       -0.56210000       5.12050000       0.12730000
H       -0.00240000      -2.15670000      -0.70330000
H       -0.69840000       1.97980000      -0.15660000
H       -0.22600000       1.46730000       1.44790000
H        2.21960000       1.55920000       0.74960000
H        2.82640000       2.53010000      -1.48000000
H        1.05680000       2.64140000      -1.91570000
H        2.44250000       3.98090000       0.51950000
H       -1.41100000       5.75750000       0.15510000
