16
Properties=species:S:1:pos:R:3 gdb_98741=T pbc="F F F"
C       -0.23930000       1.61200000       0.74680000
N       -0.24000000       0.16220000       0.67930000
C       -0.91640000      -0.52410000      -0.28040000
O       -1.57730000       0.00150000      -1.15770000
C       -0.76070000      -2.02710000      -0.16940000
O       -1.90670000      -2.80710000      -0.45890000
C       -0.81610000      -2.90150000      -1.37130000
C       -1.04310000      -2.36870000      -2.75990000
O       -0.31340000      -2.67020000      -3.67090000
H        0.78270000       2.00390000       0.72640000
H       -0.78440000       1.97850000      -0.12330000
H       -0.73660000       1.96840000       1.65540000
H        0.25140000      -0.35300000       1.39090000
H       -0.16970000      -2.39420000       0.67260000
H       -0.24220000      -3.82780000      -1.33620000
H       -1.92270000      -1.71290000      -2.86840000
