17
Properties=species:S:1:pos:R:3 gdb_48923=T pbc="F F F"
O       -0.06680000      -0.00450000       0.11130000
C        0.07080000       1.17280000      -0.12260000
C        1.35970000       1.90310000      -0.06740000
C        2.70090000       1.27050000       0.35910000
C        3.09740000       2.71890000       0.73380000
C        2.95770000       3.58000000      -0.54580000
C        1.61460000       4.15500000      -0.15890000
C        1.66930000       2.99570000      -1.12830000
C        1.58740000       3.09560000       0.97700000
H       -0.80670000       1.81080000      -0.38170000
H        2.57340000       0.63420000       1.23910000
H        3.28840000       0.74700000      -0.39970000
H        3.89050000       2.95330000       1.44220000
H        3.72960000       4.00910000      -1.17020000
H        1.20190000       5.14910000      -0.25900000
H        1.45780000       2.97400000      -2.18900000
H        1.09790000       3.14300000       1.94610000
