17
Properties=species:S:1:pos:R:3 gdb_127409=T pbc="F F F"
C       -0.14610000       1.50890000      -0.01300000
N        0.18810000       0.10060000       0.00980000
C        0.76410000      -0.52290000      -1.19860000
C        1.31640000      -1.91020000      -0.73380000
C        1.50220000      -1.66670000       0.73530000
C        2.01380000      -2.08060000       1.91270000
O        1.68490000      -1.21270000       2.89700000
N        0.90820000      -0.15040000       2.35420000
C        0.82180000      -0.47030000       1.08940000
H        0.73140000       2.14800000      -0.20370000
H       -0.88930000       1.70070000      -0.79280000
H       -0.57380000       1.78990000       0.95160000
H        0.00570000      -0.61100000      -1.98230000
H        1.58460000       0.09860000      -1.59320000
H        0.57930000      -2.70000000      -0.91890000
H        2.22740000      -2.17880000      -1.27390000
H        2.61390000      -2.92140000       2.22560000
