14
Properties=species:S:1:pos:R:3 gdb_123698=T pbc="F F F"
C       -0.00110000       1.48060000       0.09790000
C        1.29290000       0.73080000       0.01980000
O        2.01180000       0.44390000       1.24580000
C        1.17820000      -0.37750000       1.90730000
C        0.01980000      -0.74320000       1.28340000
N       -0.66350000      -1.58610000       2.09410000
N        0.02080000      -1.75510000       3.19340000
N        1.17430000      -0.99130000       3.09480000
C       -0.03520000      -0.04030000      -0.02090000
H       -0.29980000       1.92270000       1.04170000
H       -0.26110000       2.05860000      -0.78260000
H        1.97620000       0.84540000      -0.81060000
H        1.83910000      -0.99430000       3.84990000
H       -0.40340000      -0.51310000      -0.92300000
