22
Properties=species:S:1:pos:R:3 gdb_104426=T pbc="F F F"
C        0.10090000       1.55020000      -0.05720000
C       -0.03170000       0.02910000       0.04910000
C       -1.48000000      -0.51550000       0.00370000
C       -2.19090000      -0.06180000      -1.28440000
C       -1.43620000      -2.05650000       0.09790000
C       -2.79310000      -2.60730000       0.51350000
O       -3.25700000      -1.98790000       1.72170000
C       -2.93850000      -0.67920000       1.86480000
N       -2.19630000       0.05700000       1.15520000
H        1.13830000       1.85520000       0.11200000
H       -0.19070000       1.91930000      -1.04520000
H       -0.52880000       2.03980000       0.68960000
H        0.54110000      -0.45570000      -0.75280000
H        0.41330000      -0.30390000       0.99470000
H       -1.59030000      -0.31470000      -2.16520000
H       -3.17010000      -0.53830000      -1.38960000
H       -2.35500000       1.01770000      -1.27190000
H       -1.13420000      -2.50380000      -0.85550000
H       -0.69160000      -2.35150000       0.84660000
H       -3.54770000      -2.44300000      -0.26590000
H       -2.75330000      -3.67880000       0.72380000
H       -3.43290000      -0.28080000       2.75000000
