18
Properties=species:S:1:pos:R:3 gdb_31764=T pbc="F F F"
C        0.07620000       1.36910000      -0.17470000
O        0.03610000      -0.03790000      -0.06570000
C        0.55100000      -0.55140000       1.08150000
C        1.17080000       0.12320000       2.12900000
N        1.62340000      -0.87480000       2.96670000
C        1.81280000      -1.31900000       4.36180000
C        1.51570000      -2.77780000       3.84860000
C        1.22080000      -2.10010000       2.52200000
C        0.54380000      -1.96370000       1.33520000
H        1.11040000       1.74150000      -0.17140000
H       -0.39660000       1.62680000      -1.12420000
H       -0.47230000       1.84920000       0.64790000
H        1.41200000       1.16320000       2.26200000
H        2.81040000      -1.11970000       4.76380000
H        1.05370000      -0.93430000       5.04980000
H        2.37090000      -3.45880000       3.86960000
H        0.66550000      -3.25950000       4.33760000
H        0.10090000      -2.71510000       0.70230000
