17
Properties=species:S:1:pos:R:3 gdb_128534=T pbc="F F F"
C        0.26720000       0.95080000       0.46970000
O       -0.43970000       0.26650000      -0.57360000
C        0.33850000      -0.50220000      -1.37380000
C        0.60940000      -1.85200000      -1.31630000
O        0.19350000      -2.76420000      -0.39050000
C        1.43400000      -2.11890000      -2.43410000
C        2.02150000      -3.42870000      -2.84550000
N        1.65220000      -1.00370000      -3.13510000
N        0.98970000      -0.03100000      -2.47610000
H        0.79400000       0.24090000       1.11750000
H        0.99230000       1.66050000       0.05480000
H       -0.48310000       1.49310000       1.04790000
H       -0.51410000      -2.36130000       0.12520000
H        1.24330000      -4.18630000      -2.98790000
H        2.56890000      -3.30770000      -3.78280000
H        2.71100000      -3.81670000      -2.08740000
H        0.93290000       0.89210000      -2.87010000
