16
Properties=species:S:1:pos:R:3 gdb_55546=T pbc="F F F"
N        0.23420000       1.06490000      -0.43430000
C        0.28600000      -0.09080000       0.28980000
N        1.28770000      -0.69730000       0.80310000
N       -0.97240000      -0.68250000       0.55190000
C       -2.20300000      -0.35290000       0.05780000
O       -2.42250000       0.55960000      -0.72280000
C       -3.31930000      -1.22320000       0.58510000
C       -4.67000000      -0.64290000       0.68530000
O       -4.33290000      -1.54080000      -0.36200000
H        1.09660000       1.39500000      -0.83150000
H       -0.63590000       1.27350000      -0.91020000
H        2.15940000      -0.21620000       0.59190000
H       -0.88100000      -1.49360000       1.14570000
H       -3.04190000      -2.04040000       1.25130000
H       -5.35320000      -1.02840000       1.44010000
H       -4.80560000       0.39140000       0.37880000
