17
Properties=species:S:1:pos:R:3 gdb_2945=T pbc="F F F"
C        0.02360000       1.52350000       0.11300000
C       -0.04340000      -0.00500000       0.08090000
C       -1.46520000      -0.53660000      -0.07180000
C       -1.57430000      -2.07660000      -0.08210000
O       -2.75100000      -2.34060000       0.66550000
C       -2.76950000      -1.33600000       1.64580000
O       -2.28830000      -0.15440000       1.04080000
H        1.05200000       1.87160000       0.24720000
H       -0.35700000       1.95570000      -0.81910000
H       -0.58200000       1.91470000       0.93480000
H        0.55950000      -0.39250000      -0.75180000
H        0.38680000      -0.42050000       1.00090000
H       -1.92200000      -0.11280000      -0.97710000
H       -1.69540000      -2.50130000      -1.08060000
H       -0.69290000      -2.53310000       0.39680000
H       -3.80000000      -1.18600000       1.98260000
H       -2.12870000      -1.61450000       2.50330000
