20
Properties=species:S:1:pos:R:3 gdb_91556=T pbc="F F F"
O        0.33370000       1.35840000       0.01600000
C        0.11490000      -0.03540000       0.06400000
C        0.10610000      -0.77100000       1.43380000
N       -1.30840000      -1.23880000       1.22990000
C       -2.09590000       0.00260000       1.12380000
C       -1.35040000      -0.43180000      -0.07730000
C       -1.94460000      -0.91370000      -1.34930000
C       -3.41790000      -0.81310000      -1.65560000
C       -2.44970000       0.10000000      -2.35700000
H        1.28250000       1.51910000       0.03650000
H        0.74090000      -0.55910000      -0.67040000
H        0.78700000      -1.62310000       1.49240000
H        0.23730000      -0.13270000       2.31400000
H       -3.16560000      -0.17780000       1.13600000
H       -1.77430000       0.88480000       1.67270000
H       -1.43630000      -1.77770000      -1.77100000
H       -3.86670000      -1.62260000      -2.22000000
H       -4.07280000      -0.37850000      -0.90940000
H       -2.43270000       1.14260000      -2.05980000
H       -2.23530000      -0.07160000      -3.40580000
