13
Properties=species:S:1:pos:R:3 gdb_5712=T pbc="F F F"
C       -0.07460000       1.49380000       0.10600000
O        1.24560000       1.90460000      -0.29780000
C        2.12090000       0.79370000      -0.61260000
C        1.24970000      -0.39410000      -0.37730000
C        0.03730000       0.01550000       0.02030000
O       -0.75270000      -1.06540000       0.23340000
C        0.08430000      -2.11070000      -0.06680000
N        1.28260000      -1.77790000      -0.43490000
H       -0.28500000       1.86800000       1.11820000
H       -0.82110000       1.92570000      -0.57590000
H        2.46540000       0.89180000      -1.65060000
H        3.00120000       0.83420000       0.04260000
H       -0.33710000      -3.09830000       0.03300000
