21
Properties=species:S:1:pos:R:3 gdb_84034=T pbc="F F F"
C       -0.01720000       1.56430000       0.02850000
C        0.05790000       0.05340000       0.04600000
C        1.36770000      -0.65880000      -0.20040000
O        2.49260000       0.12930000      -0.42610000
C        3.65470000      -0.32580000       0.25850000
C        3.71370000       0.16000000       1.70810000
C        2.58730000      -0.35170000       2.60810000
O        1.30340000       0.10050000       2.19150000
C        0.73980000      -0.67390000       1.18160000
H        0.88730000       2.00580000       0.44530000
H       -0.13720000       1.93130000      -0.99590000
H       -0.87170000       1.91350000       0.61680000
H       -0.81750000      -0.44920000      -0.35720000
H        1.35430000      -1.58910000      -0.77170000
H        3.71520000      -1.42460000       0.21420000
H        4.50740000       0.07530000      -0.29950000
H        4.67530000      -0.14880000       2.14150000
H        3.69400000       1.25590000       1.71120000
H        2.60280000      -1.45160000       2.66280000
H        2.72460000       0.03210000       3.62460000
H        0.30850000      -1.61440000       1.53020000
