18
Properties=species:S:1:pos:R:3 gdb_64680=T pbc="F F F"
C       -0.06800000       1.68910000       0.22520000
C       -0.05840000       0.18240000       0.07260000
C       -1.37790000      -0.42700000      -0.40830000
C       -1.74620000       0.00490000      -1.75320000
C       -2.03380000       0.36930000      -2.86160000
C        1.20930000      -0.50060000      -0.34100000
C        0.70810000      -0.66360000       1.09080000
C        1.41570000      -0.04350000       2.17430000
N        1.98110000       0.45980000       3.04980000
H        0.89230000       2.06190000       0.58890000
H       -0.28140000       2.16100000      -0.73830000
H       -0.83940000       2.00490000       0.93610000
H       -1.30810000      -1.52180000      -0.38740000
H       -2.17710000      -0.15710000       0.29470000
H       -2.29720000       0.68530000      -3.84080000
H        1.15280000      -1.37760000      -0.97630000
H        2.09410000       0.10810000      -0.48620000
H        0.27610000      -1.62540000       1.34840000
