16
Properties=species:S:1:pos:R:3 gdb_50336=T pbc="F F F"
O       -0.78260000       1.27670000      -0.49170000
C        0.09730000       1.15770000       0.32230000
C        1.42260000       1.87630000       0.25030000
C        1.60420000       2.91460000      -0.89250000
C        1.91840000       4.01260000       0.14770000
O        0.89250000       5.02300000       0.28250000
C        0.09720000       4.58430000       1.28880000
N        0.38650000       3.52130000       1.92150000
C        1.62470000       3.01970000       1.31130000
H       -0.02180000       0.49290000       1.20530000
H        2.22220000       1.13010000       0.31640000
H        2.40960000       2.70110000      -1.59730000
H        0.68050000       3.09480000      -1.44530000
H        2.88340000       4.51440000       0.07850000
H       -0.76120000       5.21620000       1.48760000
H        2.38330000       2.83190000       2.07360000
