15
Properties=species:S:1:pos:R:3 gdb_4805=T pbc="F F F"
N        0.04740000       1.39210000       0.10180000
C        0.01210000      -0.00720000       0.03230000
C       -1.03640000      -0.81650000      -0.29220000
O       -0.62910000      -2.12770000      -0.32750000
C        0.69070000      -2.14320000      -0.02480000
C        1.37290000      -3.47380000       0.00440000
O        2.49030000      -3.47920000       0.87580000
C        1.14120000      -0.87960000       0.20780000
H        0.67240000       1.73130000       0.82130000
H       -0.86640000       1.80640000       0.23090000
H       -2.07310000      -0.63680000      -0.52070000
H        0.63200000      -4.24730000       0.26080000
H        1.77350000      -3.73400000      -0.98320000
H        2.17990000      -3.18310000       1.73840000
H        2.15370000      -0.59810000       0.45150000
