18
Properties=species:S:1:pos:R:3 gdb_12014=T pbc="F F F"
C       -0.02470000       1.54250000      -0.03440000
C        0.01840000       0.01540000       0.01330000
O       -1.30520000      -0.52290000       0.07380000
C        0.81670000      -0.60540000      -1.16560000
O        1.36510000      -1.83440000      -0.70630000
C        1.51240000      -1.74280000       0.68760000
C        2.24330000      -0.55140000       1.25010000
C        0.72450000      -0.58380000       1.21990000
H        0.97830000       1.97330000       0.03120000
H       -0.47880000       1.89370000      -0.96990000
H       -0.62300000       1.92500000       0.79700000
H       -1.81120000      -0.14580000      -0.65370000
H        0.17180000      -0.81640000      -2.02420000
H        1.61430000       0.07670000      -1.49570000
H        1.56870000      -2.71660000       1.15790000
H        2.70910000      -0.66760000       2.22260000
H        2.78260000       0.10600000       0.57620000
H        0.15960000      -0.62750000       2.14260000
