19
Properties=species:S:1:pos:R:3 gdb_59636=T pbc="F F F"
C        0.10960000       1.51870000      -0.12340000
C        0.00050000       0.01380000       0.12230000
O        0.58600000      -0.36190000       1.36030000
C       -1.45920000      -0.47800000       0.06900000
C       -1.57820000      -2.02230000       0.17550000
O       -2.51260000      -2.23300000       1.25980000
C       -2.72370000      -1.00490000       1.79200000
N       -3.46990000      -1.01810000       2.93510000
N       -2.20650000       0.02230000       1.23250000
H        1.14960000       1.83910000      -0.01970000
H       -0.23670000       1.78040000      -1.12930000
H       -0.50280000       2.06600000       0.59950000
H        0.57500000      -0.52160000      -0.64510000
H       -0.01100000      -0.02030000       2.04010000
H       -1.92040000      -0.10590000      -0.85580000
H       -1.98280000      -2.50200000      -0.71830000
H       -0.62790000      -2.48760000       0.45220000
H       -4.05820000      -1.82570000       3.06430000
H       -3.88640000      -0.13350000       3.17700000
