13
Properties=species:S:1:pos:R:3 gdb_28003=T pbc="F F F"
O        0.04490000       1.35550000      -0.03460000
C        0.05670000       0.01610000      -0.08120000
C        0.00480000      -0.77130000      -1.18420000
N        0.04730000      -2.09060000      -0.66490000
C        0.02400000      -3.28680000      -1.32680000
O        0.06660000      -4.36650000      -0.76000000
C        0.12210000      -1.95380000       0.73080000
O        0.17660000      -3.00890000       1.52040000
N        0.12900000      -0.71220000       1.10060000
H        0.09320000       1.59940000       0.89840000
H       -0.05490000      -0.56990000      -2.23760000
H       -0.03690000      -3.18500000      -2.42090000
H        0.15350000      -3.80480000       0.94220000
