19
Properties=species:S:1:pos:R:3 gdb_34027=T pbc="F F F"
C        0.00370000      -1.20440000       0.14090000
C        0.02510000      -0.00470000       0.06340000
C        0.02040000       1.43380000      -0.05940000
C       -1.20960000       2.04850000      -0.72860000
C       -0.88820000       3.27560000      -1.59800000
C        0.12810000       4.21140000      -0.93460000
C        1.47160000       3.49540000      -0.74150000
C        1.31540000       2.16320000      -0.04490000
O        0.48640000       2.14080000       1.11430000
H       -0.00750000      -2.26330000       0.22050000
H       -1.70700000       1.28210000      -1.32950000
H       -1.90570000       2.32090000       0.07350000
H       -0.48280000       2.93990000      -2.56200000
H       -1.81690000       3.81070000      -1.82190000
H        0.27560000       5.10780000      -1.54530000
H       -0.25060000       4.54290000       0.03850000
H        1.94780000       3.31490000      -1.71470000
H        2.16650000       4.11730000      -0.16400000
H        2.22190000       1.56340000       0.04740000
