19
Properties=species:S:1:pos:R:3 gdb_81332=T pbc="F F F"
C       -0.13510000       1.52910000      -0.00050000
C        0.05050000       0.01180000       0.00360000
O       -1.21380000      -0.63390000       0.01740000
C        1.00750000      -0.54420000      -1.11580000
C        2.01950000      -1.24650000      -0.19820000
O        1.15180000      -1.90980000       0.78470000
C        0.84550000      -0.53680000       1.20480000
C        2.33290000      -0.19610000       0.89920000
O        3.23990000      -0.61210000       1.87840000
H        0.81530000       2.06860000       0.02760000
H       -0.66040000       1.84300000      -0.91060000
H       -0.73830000       1.83810000       0.85850000
H       -1.70940000      -0.33220000      -0.75140000
H        0.48180000      -1.25670000      -1.75490000
H        1.45880000       0.23730000      -1.73440000
H        2.78340000      -1.89630000      -0.62640000
H        0.40210000      -0.45830000       2.19740000
H        2.61230000       0.81780000       0.60500000
H        2.97300000      -1.50900000       2.12160000
