16
Properties=species:S:1:pos:R:3 gdb_35397=T pbc="F F F"
C       -0.39360000      -1.23490000      -0.40460000
C       -0.19430000      -0.07360000      -0.16530000
C        0.01400000       1.34170000       0.07140000
O       -0.14990000       1.78260000       1.45740000
C        1.07590000       2.55590000       1.39380000
C        2.33450000       1.86360000       1.93780000
C        2.29800000       0.41620000       1.69190000
N        2.65450000       1.28490000       0.54850000
C        1.42320000       1.99050000       0.02010000
H       -0.55800000      -2.26430000      -0.60920000
H       -0.67470000       1.91160000      -0.56930000
H        0.93090000       3.61110000       1.62910000
H        3.09920000       2.35400000       2.53150000
H        3.15550000      -0.15980000       2.02650000
H        1.35430000      -0.11420000       1.71580000
H        1.67160000       2.58040000      -0.85970000
