23
Properties=species:S:1:pos:R:3 gdb_78053=T pbc="F F F"
C       -0.40930000       1.48670000       0.37630000
C       -0.14650000      -0.00450000       0.19000000
C        0.31740000      -0.38930000      -1.22410000
C        1.63770000      -0.94840000      -0.66170000
C        1.20710000      -0.58200000       0.76700000
C        2.14600000       0.39610000       1.46600000
C        0.66540000      -1.85290000      -1.35690000
C       -0.09220000      -2.99240000      -0.71290000
O        1.16080000      -2.18150000      -2.63810000
H        0.41280000       2.10010000      -0.00480000
H       -1.31370000       1.77830000      -0.16940000
H       -0.56210000       1.74070000       1.43030000
H       -1.03130000      -0.55470000       0.53390000
H        0.16510000       0.21100000      -2.11550000
H        2.64160000      -0.84400000      -1.05840000
H        1.06100000      -1.44820000       1.42410000
H        2.38570000       1.25790000       0.83570000
H        1.71650000       0.76860000       2.40160000
H        3.09090000      -0.10220000       1.70960000
H       -0.43140000      -2.75530000       0.29760000
H       -0.98000000      -3.24580000      -1.30630000
H        0.54300000      -3.88250000      -0.66320000
H        0.40340000      -2.28040000      -3.22580000
