17
Properties=species:S:1:pos:R:3 gdb_64682=T pbc="F F F"
C       -0.09540000       1.71030000       0.21820000
C       -0.09360000       0.20270000       0.10340000
C       -1.38670000      -0.41940000      -0.43100000
C       -1.64550000      -0.07010000      -1.82440000
C       -1.83870000       0.22040000      -2.97410000
N        1.17990000      -0.39640000      -0.29460000
C        0.68130000      -0.63960000       1.07740000
C        1.43850000      -0.06200000       2.16150000
N        2.01570000       0.39760000       3.05160000
H        0.86990000       2.07120000       0.57630000
H       -0.29220000       2.15570000      -0.76120000
H       -0.87410000       2.04510000       0.91130000
H       -1.33890000      -1.51160000      -0.33140000
H       -2.22710000      -0.09140000       0.19410000
H       -2.01760000       0.47480000      -3.98970000
H        1.03950000      -1.23020000      -0.86110000
H        0.27390000      -1.61990000       1.31180000
