21
Properties=species:S:1:pos:R:3 gdb_90410=T pbc="F F F"
C       -0.07810000       1.59300000       0.06660000
C        0.18700000       0.10060000       0.06240000
O        1.33280000      -0.32470000      -0.75240000
C        1.77800000      -1.18280000       0.30840000
C        2.23190000      -0.32810000       1.44540000
C        2.96140000      -0.99320000       2.58780000
O        2.77610000       0.93340000       1.16930000
C        0.73560000      -0.63560000       1.29000000
C       -0.15690000      -1.26690000       2.32070000
H        0.74690000       2.14920000       0.51310000
H       -0.24780000       1.94990000      -0.95470000
H       -0.98580000       1.79800000       0.64480000
H       -0.69660000      -0.43320000      -0.31580000
H        2.12120000      -2.17900000       0.04570000
H        4.03550000      -0.98110000       2.38210000
H        2.78990000      -0.45860000       3.52770000
H        2.64870000      -2.03190000       2.72220000
H        2.67700000       1.05270000       0.21380000
H       -0.63690000      -0.50040000       2.94150000
H       -0.95230000      -1.85540000       1.84820000
H        0.39070000      -1.93020000       2.99440000
