16
Properties=species:S:1:pos:R:3 gdb_33685=T pbc="F F F"
C        0.09160000      -1.15720000      -0.05530000
C        0.02790000       0.04430000      -0.02160000
C       -0.03980000       1.45750000       0.01830000
C        0.09780000       2.33640000       1.24990000
C       -1.01580000       3.36180000       1.23700000
C       -1.13330000       3.53130000      -0.26090000
C        0.17860000       3.32800000      -0.92670000
C        1.03050000       2.53750000       0.07280000
N       -0.86420000       2.25240000      -0.99170000
H        0.14560000      -2.21680000      -0.08880000
H        0.47940000       1.89010000       2.15860000
H       -1.93760000       2.98090000       1.68820000
H       -0.73950000       4.29770000       1.73450000
H       -1.90110000       4.15030000      -0.71080000
H        0.52870000       3.83300000      -1.81840000
H        2.10520000       2.43440000       0.09990000
