20
Properties=species:S:1:pos:R:3 gdb_114939=T pbc="F F F"
C        0.07610000       1.50640000       0.11320000
C       -0.04760000      -0.01860000       0.04990000
C       -1.48760000      -0.53240000      -0.09800000
C       -1.57060000      -2.08830000      -0.13500000
C       -2.08200000      -2.44470000       1.24780000
C       -2.16620000      -3.76960000       1.79730000
O       -1.80680000      -4.78660000       1.22880000
C       -2.48080000      -1.30290000       1.86070000
N       -2.32730000      -0.19670000       1.07610000
H        1.12490000       1.81180000       0.17040000
H       -0.36030000       1.97800000      -0.77440000
H       -0.42470000       1.92580000       0.99350000
H        0.52310000      -0.39320000      -0.80850000
H        0.39770000      -0.47480000       0.94300000
H       -1.93370000      -0.08520000      -0.99330000
H       -2.26380000      -2.43450000      -0.91020000
H       -0.59990000      -2.54300000      -0.35440000
H       -2.59340000      -3.81260000       2.82720000
H       -2.91560000      -1.20590000       2.84890000
H       -2.27110000       0.72100000       1.48840000
