20
Properties=species:S:1:pos:R:3 gdb_38160=T pbc="F F F"
C       -0.01110000       1.54540000      -0.06730000
C        1.52310000       1.33560000       0.04110000
C        1.21460000       0.03200000       0.86940000
C       -0.06860000       0.02790000       0.02780000
N       -1.22890000      -0.77840000      -0.32220000
C       -0.01930000      -0.80810000      -1.18900000
C        0.20290000      -0.11990000      -2.48450000
C        1.24110000       0.72430000      -2.53760000
C        2.14960000       1.12790000      -1.37460000
H       -0.42290000       2.01160000       0.83340000
H       -0.41150000       2.03230000      -0.95610000
H        2.09630000       2.09420000       0.57890000
H        1.88970000      -0.82360000       0.77690000
H        1.06990000       0.27930000       1.92660000
H       -1.28170000      -1.64950000       0.20130000
H        0.58090000      -1.71470000      -1.08080000
H       -0.38590000      -0.34720000      -3.36910000
H        1.49670000       1.18030000      -3.49220000
H        2.61830000       2.07770000      -1.65680000
H        2.98270000       0.41250000      -1.30170000
