15
Properties=species:S:1:pos:R:3 gdb_21070=T pbc="F F F"
C        0.07940000       1.41050000       0.03050000
N       -0.03380000      -0.03270000       0.00590000
N       -0.17790000      -0.71110000      -1.12610000
C       -0.17100000      -1.98580000      -0.73060000
C       -0.01030000      -2.02320000       0.66280000
C        0.02990000      -3.20190000       1.58140000
O        0.47130000      -4.32200000       0.82870000
N        0.08220000      -0.76750000       1.10760000
H        1.12770000       1.71590000       0.10470000
H       -0.34780000       1.79410000      -0.89510000
H       -0.46840000       1.79610000       0.89140000
H       -0.27270000      -2.79580000      -1.43280000
H        0.69810000      -2.97970000       2.42650000
H       -0.97330000      -3.38080000       2.00150000
H        0.36880000      -5.10600000       1.37550000
