15
Properties=species:S:1:pos:R:3 gdb_31862=T pbc="F F F"
C       -0.01500000       1.39900000       0.02600000
O       -0.03410000      -0.02540000       0.04400000
C       -1.23460000      -0.62330000       0.01630000
N       -2.33430000       0.12240000      -0.02610000
C       -3.49630000      -0.53670000      -0.05180000
C       -3.56430000      -1.92240000      -0.03560000
O       -4.71570000      -2.64840000      -0.06020000
C       -2.33810000      -2.59560000       0.00950000
N       -1.17700000      -1.95990000       0.03550000
H        1.03980000       1.67560000       0.05370000
H       -0.48530000       1.79030000      -0.88110000
H       -0.53800000       1.81350000       0.89300000
H       -4.40260000       0.06890000      -0.08660000
H       -5.47090000      -2.05100000      -0.09050000
H       -2.32000000      -3.68320000       0.02430000
