14
Properties=species:S:1:pos:R:3 gdb_132527=T pbc="F F F"
C       -0.02810000       1.53010000       0.02480000
C       -0.00630000       0.02710000      -0.02650000
C       -0.03800000      -0.71250000      -1.20760000
C       -0.01540000      -2.10420000      -1.18060000
C        0.03980000      -2.70170000       0.06970000
F        0.06350000      -4.02650000       0.15570000
N        0.07150000      -2.04850000       1.21400000
C        0.04830000      -0.73650000       1.14160000
F        0.08090000      -0.09140000       2.30550000
H        0.86060000       1.92470000       0.52820000
H       -0.06570000       1.95280000      -0.98200000
H       -0.89610000       1.89750000       0.58210000
H       -0.08090000      -0.19220000      -2.15930000
H       -0.03890000      -2.70610000      -2.07920000
