23
Properties=species:S:1:pos:R:3 gdb_121373=T pbc="F F F"
O        0.02080000       1.43650000      -0.23040000
C        0.05350000       0.02590000      -0.06270000
C       -1.38550000      -0.47260000      -0.02350000
C       -1.49630000      -1.99530000       0.07240000
C       -0.91720000      -2.63210000       1.36090000
C       -1.69030000      -3.96750000       1.56300000
C       -2.76860000      -3.99810000       0.45010000
C       -2.93650000      -2.53110000       0.03360000
O       -3.69100000      -1.79640000       0.99590000
H        0.92570000       1.76110000      -0.21680000
H        0.59450000      -0.45900000      -0.89360000
H        0.57530000      -0.24920000       0.86750000
H       -1.90360000      -0.01120000       0.82240000
H       -1.89010000      -0.11930000      -0.93140000
H       -0.98470000      -2.43910000      -0.79400000
H        0.16270000      -2.78710000       1.28910000
H       -1.08920000      -1.96160000       2.20840000
H       -1.03240000      -4.83850000       1.50180000
H       -2.15500000      -3.99270000       2.55170000
H       -2.42270000      -4.57860000      -0.41320000
H       -3.71340000      -4.44620000       0.77680000
H       -3.38640000      -2.42540000      -0.96510000
H       -4.56490000      -2.19410000       1.05330000
