19
Properties=species:S:1:pos:R:3 gdb_41985=T pbc="F F F"
C       -0.03310000       1.51790000      -0.20250000
O        1.27290000       1.99500000       0.12560000
C        1.95010000       1.02520000       0.92540000
C        1.75860000       1.36800000       2.40510000
O        0.38410000       1.35230000       2.74830000
C       -0.20100000       0.06670000       2.65250000
C        0.06610000      -0.63840000       1.33660000
C       -0.00440000       0.00160000      -0.03400000
C        1.33380000      -0.33280000       0.57680000
H       -0.78310000       2.00370000       0.43340000
H       -0.23930000       1.78520000      -1.24540000
H        3.01550000       1.06280000       0.67190000
H        2.33630000       0.66960000       3.03600000
H        2.10490000       2.38630000       2.60030000
H        0.17350000      -0.57750000       3.46800000
H       -1.27440000       0.21360000       2.81490000
H       -0.23340000      -1.68380000       1.35780000
H       -0.40450000      -0.60300000      -0.83980000
H        1.97010000      -1.12320000       0.19800000
