19
Properties=species:S:1:pos:R:3 gdb_76119=T pbc="F F F"
C       -0.21230000       1.54920000       0.12620000
C        0.03060000       0.05000000       0.04970000
C        1.14080000      -0.53160000      -0.93300000
C        1.97670000       0.40880000      -1.65650000
C        2.66440000       1.20240000      -2.24410000
C        1.77030000      -1.27270000       0.26520000
C        2.18470000      -0.28000000       1.32660000
C        0.73850000      -0.67280000       1.20380000
O        0.05670000      -1.32440000       2.21810000
H        0.71080000       2.10130000       0.32250000
H       -0.62760000       1.92880000      -0.81290000
H       -0.92610000       1.78040000       0.92490000
H       -0.90780000      -0.47200000      -0.16040000
H        0.68430000      -1.23240000      -1.63750000
H        3.27550000       1.89250000      -2.77110000
H        2.17330000      -2.27650000       0.22630000
H        2.68580000      -0.73050000       2.17760000
H        2.55150000       0.70520000       1.05110000
H        0.00950000      -0.73660000       2.97950000
