17
Properties=species:S:1:pos:R:3 gdb_26626=T pbc="F F F"
C       -0.05970000       1.51260000       0.10250000
C        0.00250000       0.02650000      -0.02820000
C        0.00050000      -0.79690000      -1.13160000
C       -0.06790000      -0.40990000      -2.57640000
C        0.07870000      -2.14740000      -0.63830000
C        0.12510000      -2.09310000       0.74170000
N        0.07850000      -0.78050000       1.09330000
C        0.10370000      -3.32330000      -1.42490000
N        0.12280000      -4.27300000      -2.08960000
H        0.82600000       1.91750000       0.60740000
H       -0.11620000       1.97930000      -0.88240000
H       -0.93970000       1.83790000       0.67100000
H        0.81000000      -0.76490000      -3.12730000
H       -0.94620000      -0.84530000      -3.06570000
H       -0.12200000       0.67450000      -2.70090000
H        0.18650000      -2.88260000       1.47190000
H        0.09660000      -0.44040000       2.03960000
