19
Properties=species:S:1:pos:R:3 gdb_105983=T pbc="F F F"
C       -0.04330000       1.47070000       0.12100000
C        0.02010000      -0.01900000       0.03190000
C        0.22420000      -0.97700000      -1.18720000
C       -0.61740000      -2.03960000      -0.49880000
C        0.88710000      -2.00280000      -0.28080000
C        0.68810000      -1.05010000       0.94510000
C        1.46090000      -0.87470000       2.20770000
O        1.34320000      -1.96820000       3.11430000
C       -0.82320000      -1.08960000       0.71660000
H        0.88460000       1.93800000      -0.23000000
H       -0.86680000       1.86840000      -0.48410000
H       -0.20940000       1.79410000       1.15430000
H        0.37610000      -0.78990000      -2.24220000
H       -1.23290000      -2.81740000      -0.93030000
H        1.64050000      -2.74240000      -0.52200000
H        2.52050000      -0.67550000       1.97520000
H        1.08390000      -0.00120000       2.75170000
H        1.59430000      -2.76630000       2.63860000
H       -1.62000000      -0.98140000       1.44110000
