23
Properties=species:S:1:pos:R:3 gdb_122985=T pbc="F F F"
C        0.29370000       1.54280000      -0.38160000
C        0.00900000       0.07160000      -0.16410000
C       -1.42620000      -0.39290000      -0.34510000
C       -2.39460000       0.17890000       0.70050000
C       -3.81280000      -0.37980000       0.55610000
C       -4.77760000       0.17260000       1.59670000
O       -6.05350000      -0.40580000       1.36330000
C        1.10220000      -0.89930000      -0.32740000
O        0.67240000      -0.50190000       0.97710000
H        1.35240000       1.75630000      -0.21650000
H        0.03220000       1.84190000      -1.40260000
H       -0.28630000       2.16320000       0.30860000
H       -1.76610000      -0.12380000      -1.35440000
H       -1.44630000      -1.48700000      -0.28660000
H       -2.00180000      -0.05040000       1.69900000
H       -2.42700000       1.27330000       0.62280000
H       -4.21110000      -0.15200000      -0.44070000
H       -3.79880000      -1.47330000       0.64260000
H       -4.40980000      -0.06710000       2.60790000
H       -4.81890000       1.27200000       1.51920000
H       -6.66170000      -0.06990000       2.02780000
H        0.87600000      -1.92940000      -0.60150000
H        2.09450000      -0.55410000      -0.61740000
