16
Properties=species:S:1:pos:R:3 gdb_30411=T pbc="F F F"
C       -0.14560000       1.36360000       0.02010000
N       -0.12380000      -0.08010000      -0.09860000
C        0.58370000      -0.64070000      -1.00440000
N        1.38270000       0.03350000      -1.93890000
C        2.07840000      -0.64590000      -2.76260000
O        2.15200000      -1.97950000      -2.86030000
C        1.37150000      -2.71180000      -1.98800000
C        0.57750000      -2.11570000      -1.07600000
N       -0.27810000      -2.76020000      -0.21310000
H        0.46860000       1.88100000      -0.72380000
H       -1.18190000       1.71300000      -0.06500000
H        0.19610000       1.64580000       1.02380000
H        2.71480000      -0.16850000      -3.50240000
H        1.48010000      -3.77460000      -2.14810000
H       -0.04160000      -3.69880000       0.06710000
H       -0.58510000      -2.14400000       0.53020000
