16
Properties=species:S:1:pos:R:3 gdb_32349=T pbc="F F F"
C        0.03080000       1.45540000      -0.02060000
N        0.02770000       0.01320000       0.13410000
C       -1.18890000      -0.67050000       0.04880000
C       -2.40780000      -0.07350000       0.03860000
O       -3.57100000      -0.76930000       0.03570000
C       -3.62730000      -2.16000000       0.00280000
O       -4.70900000      -2.68840000      -0.01520000
C       -2.33050000      -2.81500000      -0.00190000
C       -1.17970000      -2.10860000       0.02800000
H        1.06180000       1.81380000       0.00280000
H       -0.44130000       1.79890000      -0.95580000
H       -0.50380000       1.91960000       0.81570000
H        0.76380000      -0.44280000      -0.38660000
H       -2.58240000       0.99300000       0.05010000
H       -2.34690000      -3.89720000      -0.02210000
H       -0.22060000      -2.62050000       0.04220000
