19
Properties=species:S:1:pos:R:3 gdb_86968=T pbc="F F F"
C        0.07650000       1.60990000      -0.01440000
C        0.01780000       0.08030000       0.06270000
N        0.59920000      -0.47910000      -1.16610000
C        0.84890000      -1.91560000      -1.12050000
C        1.91870000      -2.20660000      -0.05050000
C        1.62120000      -1.45400000       1.21760000
C        0.75710000      -0.44360000       1.26550000
C       -0.38110000      -2.71250000      -0.87610000
N       -1.36970000      -3.28960000      -0.71120000
H        1.11270000       1.94850000      -0.09870000
H       -0.47810000       1.97580000      -0.88530000
H       -0.37160000       2.05670000       0.87830000
H       -1.04410000      -0.21160000       0.17310000
H        0.00750000      -0.25120000      -1.95780000
H        1.22890000      -2.22150000      -2.10110000
H        1.96850000      -3.28400000       0.14180000
H        2.89500000      -1.91130000      -0.45430000
H        2.13690000      -1.77690000       2.11760000
H        0.54190000       0.05420000       2.20710000
