20
Properties=species:S:1:pos:R:3 gdb_109037=T pbc="F F F"
C       -0.23090000       1.55210000       0.07050000
C        0.03340000       0.04460000       0.01960000
N        0.67250000      -0.37920000      -1.25310000
C        2.03270000       0.12630000      -1.48810000
C        1.83110000      -1.22410000      -0.88680000
C        1.89340000      -1.26660000       0.60080000
C        0.91830000      -0.52160000       1.12420000
C        0.65570000      -0.25760000       2.56950000
O        1.58880000      -0.96900000       3.36250000
H        0.69930000       2.12750000       0.09100000
H       -0.80540000       1.85880000      -0.80800000
H       -0.81030000       1.81460000       0.96140000
H       -0.94680000      -0.45640000       0.05440000
H        2.28480000       0.23240000      -2.54020000
H        2.44330000       0.89260000      -0.83570000
H        2.00450000      -2.12430000      -1.47110000
H        2.63890000      -1.81120000       1.16380000
H        0.71370000       0.82850000       2.76130000
H       -0.38270000      -0.55290000       2.80860000
H        1.40210000      -0.77940000       4.28620000
