15
Properties=species:S:1:pos:R:3 gdb_132011=T pbc="F F F"
C        0.00140000       1.52190000      -0.06780000
C        0.00020000       0.02620000       0.00150000
C       -1.11080000      -0.70330000       0.17080000
F       -2.33510000      -0.20270000       0.29700000
N       -1.09160000      -2.08030000       0.23220000
C        0.11690000      -2.71730000       0.11450000
N        1.23840000      -2.12370000      -0.04960000
C        1.27210000      -0.70900000      -0.11960000
N        2.36350000      -0.05830000      -0.28310000
H        0.64340000       1.93310000       0.71740000
H        0.43320000       1.85290000      -1.01740000
H       -1.00510000       1.93160000       0.03530000
H       -1.95410000      -2.58400000       0.36090000
H        0.06920000      -3.80270000       0.17100000
H        3.13440000      -0.72550000      -0.34610000
