15
Properties=species:S:1:pos:R:3 gdb_6263=T pbc="F F F"
C       -0.17560000       1.52090000       0.05490000
C        0.01400000       0.01420000       0.00240000
C        0.73980000      -0.56150000       1.21140000
O       -1.33940000      -0.55230000      -0.06110000
C       -1.46650000      -1.74400000      -0.63230000
O       -0.60060000      -2.42960000      -1.10660000
C       -2.87960000      -2.15300000      -0.62350000
N       -3.97290000      -2.52400000      -0.64210000
H        0.80050000       2.01410000       0.06950000
H       -0.72880000       1.87580000      -0.81820000
H       -0.72340000       1.81260000       0.95580000
H        0.52480000      -0.28410000      -0.91690000
H        0.19980000      -0.32670000       2.13360000
H        0.84370000      -1.64520000       1.12390000
H        1.74170000      -0.12730000       1.27830000
