14
Properties=species:S:1:pos:R:3 gdb_123888=T pbc="F F F"
C       -0.13860000       1.28410000      -0.37700000
C        1.27860000       1.01170000       0.02470000
N        0.26450000      -0.01530000       0.14830000
C       -0.14570000      -0.51460000       1.36000000
C       -1.48760000      -0.84930000       1.61070000
N       -1.83240000      -1.39920000       2.75250000
N       -0.87770000      -1.63910000       3.66740000
N        0.36880000      -1.32020000       3.43860000
N        0.76520000      -0.75200000       2.30180000
H       -0.73090000       1.92520000       0.27130000
H       -0.41740000       1.29850000      -1.42590000
H        2.02960000       0.83390000      -0.73800000
H        1.64470000       1.45560000       0.94560000
H       -2.27350000      -0.66740000       0.88220000
