19
Properties=species:S:1:pos:R:3 gdb_100515=T pbc="F F F"
C        0.05680000       1.81830000      -0.31610000
C        0.27320000       0.31740000      -0.10230000
N        0.71480000      -0.38150000      -1.31830000
C        2.16870000      -0.52370000      -1.47340000
C       -0.15210000      -0.81080000      -2.21990000
N       -1.45570000      -0.64510000      -2.09580000
H       -1.93000000      -1.07890000      -2.89940000
H       -1.93090000      -0.16230000      -1.35350000
C        0.16530000      -1.61530000      -3.61020000
O        1.34730000      -1.82010000      -3.87280000
O       -0.90090000      -1.88650000      -4.17880000
H        0.97790000       2.29870000      -0.65730000
H       -0.71860000       2.01200000      -1.06270000
H       -0.24560000       2.29120000       0.62270000
H        1.04380000       0.15200000       0.65550000
H       -0.63560000      -0.16420000       0.27530000
H        2.55970000      -1.13060000      -0.65000000
H        2.36490000      -1.00370000      -2.43140000
H        2.63440000       0.46650000      -1.42960000
