17
Properties=species:S:1:pos:R:3 gdb_82652=T pbc="F F F"
O       -0.07460000       1.49770000       0.11240000
C        0.00730000       0.09020000       0.09370000
C        0.25400000      -0.69130000       1.42880000
C       -0.82390000      -0.13800000       2.39870000
C       -1.84780000      -0.79900000       1.48080000
C       -1.31280000      -0.64610000       0.01880000
O       -2.14070000      -0.78490000      -1.07080000
C       -0.81540000      -1.74980000       0.89950000
O       -0.77090000      -3.09170000       0.64600000
H        0.81820000       1.85700000       0.10630000
H        0.68450000      -0.26890000      -0.69330000
H        1.26870000      -0.90800000       1.75690000
H       -0.77890000      -0.61600000       3.38170000
H       -0.85760000       0.94980000       2.50710000
H       -2.90740000      -0.97260000       1.62160000
H       -2.67670000       0.01290000      -1.14220000
H       -0.83640000      -3.56570000       1.48280000
