15
Properties=species:S:1:pos:R:3 gdb_129353=T pbc="F F F"
N       -0.24530000       1.09250000      -0.02340000
C       -0.32770000      -0.15750000      -0.14360000
O       -0.63420000      -0.91440000       0.93890000
C       -0.83010000      -2.30010000       0.70410000
C       -2.21330000      -2.57960000       0.20100000
C       -3.36390000      -1.82600000       0.18560000
N       -4.36520000      -2.56180000      -0.37730000
N       -3.90610000      -3.72990000      -0.70910000
N       -2.59930000      -3.75050000      -0.36480000
H        0.01500000       1.51530000      -0.91180000
H       -0.16150000      -0.74680000      -1.05580000
H       -0.07520000      -2.68840000       0.00410000
H       -0.65730000      -2.78480000       1.67050000
H       -3.51790000      -0.81970000       0.53730000
H       -2.05960000      -4.58260000      -0.54430000
