19
Properties=species:S:1:pos:R:3 gdb_76400=T pbc="F F F"
C       -0.01460000       1.69570000       0.32740000
C       -0.02830000       0.21360000       0.01370000
C       -1.32870000      -0.27660000      -0.55420000
C       -1.55730000      -0.40730000      -1.99920000
O       -1.32950000      -1.56170000      -1.18320000
C        1.24750000      -0.47680000      -0.45680000
O        2.43960000       0.24050000      -0.53790000
C        0.69620000      -0.76060000       0.92050000
O        1.41400000      -0.19940000       1.99370000
H        0.95540000       2.01730000       0.70570000
H       -0.23290000       2.27690000      -0.57470000
H       -0.76820000       1.94520000       1.08250000
H       -2.20100000      -0.10060000       0.08010000
H       -2.56470000      -0.31650000      -2.40170000
H       -0.75110000      -0.16090000      -2.68800000
H        1.16030000      -1.24100000      -1.22180000
H        2.69490000       0.43840000       0.37400000
H        0.22270000      -1.71810000       1.12660000
H        2.00440000      -0.87940000       2.33650000
