21
Properties=species:S:1:pos:R:3 gdb_59437=T pbc="F F F"
C        0.43160000       1.48920000       0.03080000
C        0.15530000      -0.02370000      -0.02270000
C        0.65660000      -0.63190000      -1.33920000
C        0.65910000      -0.68870000       1.25480000
C        1.02930000      -2.14210000       1.36280000
N        2.02640000      -1.09800000       1.51540000
C        3.15690000      -0.90180000       0.72710000
N        3.93050000      -2.03900000       0.60010000
O        3.46700000       0.16470000       0.23100000
H        1.50850000       1.67310000       0.01970000
H       -0.02300000       1.99470000      -0.82740000
H        0.01430000       1.93580000       0.93990000
H       -0.93540000      -0.16670000       0.01360000
H        1.73040000      -0.47880000      -1.46710000
H        0.43990000      -1.70230000      -1.41290000
H        0.15150000      -0.14350000      -2.17860000
H        0.19580000      -0.25630000       2.14250000
H        0.77910000      -2.70490000       2.25980000
H        1.05570000      -2.72880000       0.44840000
H        3.82310000      -2.76510000       1.29060000
H        4.87550000      -1.86030000       0.29760000
