16
Properties=species:S:1:pos:R:3 gdb_51143=T pbc="F F F"
N       -0.10930000       1.30880000      -0.11250000
C       -0.04940000       0.05320000      -0.05790000
O       -1.19830000      -0.65560000       0.12960000
C       -1.06710000      -2.03080000       0.12140000
C       -1.29740000      -2.84820000      -1.14500000
C       -2.18150000      -3.09200000       0.03480000
C       -1.44230000      -3.99720000       1.03560000
C       -0.38800000      -2.86430000       1.17270000
O        0.49260000      -2.63810000       1.95160000
H        0.82340000       1.69620000      -0.23950000
H        0.84190000      -0.57860000      -0.13250000
H       -1.72430000      -2.24510000      -1.94000000
H       -0.58480000      -3.60100000      -1.47140000
H       -3.24540000      -2.90100000       0.02690000
H       -1.96010000      -4.13880000       1.98820000
H       -1.09940000      -4.96490000       0.65950000
