17
Properties=species:S:1:pos:R:3 gdb_87648=T pbc="F F F"
C        0.07390000       1.54470000       0.27400000
C       -0.02930000       0.03990000       0.16190000
C        1.15000000      -0.77890000      -0.36250000
C        0.75190000      -0.84260000       1.06810000
O        1.59710000      -0.30510000       2.12600000
C        1.13940000      -1.24220000       3.02050000
O        1.38560000      -1.33490000       4.17910000
C        0.28290000      -1.97730000       1.96210000
O       -1.10220000      -2.02210000       2.16530000
H        1.07270000       1.84720000       0.60050000
H       -0.13120000       2.02190000      -0.68950000
H       -0.64460000       1.93190000       1.00340000
H       -1.01590000      -0.34240000      -0.08710000
H        0.96250000      -1.64170000      -0.99340000
H        2.06240000      -0.23700000      -0.59060000
H        0.70620000      -2.95700000       1.69950000
H       -1.28260000      -2.64880000       2.87450000
