22
Properties=species:S:1:pos:R:3 gdb_111319=T pbc="F F F"
C        0.31840000       1.32370000       0.21540000
O       -0.22180000       0.08570000      -0.18390000
C        0.51460000      -0.54210000      -1.19290000
C        1.91870000      -1.08250000      -0.87640000
N        1.76290000      -2.10300000       0.19030000
C        1.48420000      -2.46690000      -1.21420000
C        0.04350000      -2.01220000      -1.53470000
C       -1.05330000      -2.58200000      -0.64230000
C       -0.28570000      -2.16650000      -3.01910000
H        1.32600000       1.21250000       0.64220000
H        0.37500000       2.03400000      -0.62560000
H       -0.34350000       1.73600000       0.98080000
H        0.54070000       0.08530000      -2.09890000
H        2.87340000      -0.59910000      -1.04600000
H        2.69930000      -2.44210000       0.40940000
H        2.04080000      -3.25400000      -1.71040000
H       -0.77560000      -2.49720000       0.40870000
H       -1.99440000      -2.04370000      -0.79360000
H       -1.22520000      -3.63860000      -0.87860000
H       -0.44260000      -3.22010000      -3.27680000
H       -1.20070000      -1.62020000      -3.27230000
H        0.52200000      -1.78440000      -3.65360000
