16
Properties=species:S:1:pos:R:3 gdb_128158=T pbc="F F F"
C       -0.53280000       1.19670000       0.19630000
N        0.49830000       0.20450000      -0.13360000
C        0.89140000      -0.65620000       0.89250000
C        0.76450000      -2.02440000       1.02930000
O        0.11190000      -2.85690000       0.16030000
C        1.41610000      -2.32190000       2.24440000
O        1.51690000      -3.57110000       2.75900000
N        1.90640000      -1.25020000       2.83960000
N        1.55340000      -0.22710000       2.00540000
H       -0.16170000       1.87130000       0.97250000
H       -0.74020000       1.79680000      -0.69330000
H       -1.47280000       0.75110000       0.55390000
H        0.22230000      -0.34690000      -0.93700000
H        0.31260000      -3.76300000       0.41590000
H        2.00380000      -3.49970000       3.58920000
H        1.98200000       0.67210000       2.13320000
