22
Properties=species:S:1:pos:R:3 gdb_86669=T pbc="F F F"
C       -0.58780000       1.38830000      -0.04160000
C        0.07750000       0.02070000      -0.07220000
C        1.43090000      -0.09520000      -0.83390000
N        2.02240000      -0.66280000       0.37180000
C        3.26650000      -1.14060000       0.57700000
O        4.14320000      -1.16830000      -0.26570000
C        0.81370000      -0.52330000       1.21680000
C        0.99660000       0.47100000       2.36540000
C        0.26320000      -1.85620000       1.72680000
H        0.10600000       2.17630000       0.26620000
H       -0.95860000       1.64890000      -1.03870000
H       -1.44330000       1.40520000       0.64160000
H       -0.64010000      -0.72380000      -0.42810000
H        1.45130000      -0.76650000      -1.69780000
H        1.87730000       0.86240000      -1.12750000
H        3.40750000      -1.51510000       1.61210000
H        1.43500000       1.41040000       2.02060000
H        0.03640000       0.69180000       2.84300000
H        1.65910000       0.05260000       3.13020000
H        0.91230000      -2.28790000       2.49590000
H       -0.72790000      -1.71090000       2.17060000
H        0.17280000      -2.57920000       0.91120000
