20
Properties=species:S:1:pos:R:3 gdb_112055=T pbc="F F F"
C        0.01830000       1.50400000      -0.18160000
C       -0.05400000      -0.01040000       0.02980000
N       -1.41370000      -0.51980000       0.05550000
C       -2.17330000      -0.83610000       1.16700000
N       -3.35920000      -1.26610000       0.95810000
C       -3.51670000      -1.27240000      -0.50370000
C       -2.18820000      -0.76590000      -1.08050000
N       -1.74960000      -0.56790000      -2.25400000
C       -2.60930000      -0.86350000      -3.38220000
H        1.06230000       1.83170000      -0.20350000
H       -0.44760000       1.77130000      -1.13260000
H       -0.49310000       2.04070000       0.62360000
H        0.46990000      -0.52310000      -0.78260000
H        0.42540000      -0.29500000       0.97230000
H       -1.73590000      -0.71390000       2.15350000
H       -3.75280000      -2.28310000      -0.85650000
H       -4.35500000      -0.63070000      -0.79920000
H       -2.79980000       0.05450000      -3.95230000
H       -2.09520000      -1.55280000      -4.06280000
H       -3.58140000      -1.30740000      -3.12290000
