19
Properties=species:S:1:pos:R:3 gdb_81450=T pbc="F F F"
O        0.02710000       1.49740000      -0.07750000
C        0.01400000       0.10020000       0.01190000
C        0.06260000      -0.63140000       1.38580000
C       -0.99670000       0.10720000       2.23040000
C       -2.10900000       0.11250000       1.16070000
C       -3.56460000      -0.12140000       1.43680000
C       -3.08860000       1.22330000       0.93210000
C       -1.36340000      -0.59520000       0.03640000
O       -0.70710000      -1.69630000       0.74720000
H        0.93700000       1.78920000      -0.18640000
H        0.68050000      -0.38700000      -0.70690000
H        0.98280000      -0.97170000       1.86140000
H       -1.26170000      -0.46050000       3.12560000
H       -0.67070000       1.11130000       2.51480000
H       -4.12360000      -0.75850000       0.75820000
H       -3.87790000      -0.19640000       2.47330000
H       -3.07900000       2.05880000       1.62420000
H       -3.32410000       1.50190000      -0.09020000
H       -1.90920000      -0.89270000      -0.85930000
