20
Properties=species:S:1:pos:R:3 gdb_120707=T pbc="F F F"
C       -0.51500000       1.38120000      -0.24200000
N       -0.81810000       0.01530000       0.19130000
H       -0.12420000      -0.28480000       0.86880000
H       -2.43160000      -0.22350000       0.75480000
C       -0.85520000      -0.95240000      -0.91110000
C       -1.34100000      -2.32880000      -0.48250000
C       -1.42050000      -2.77880000       0.94810000
C       -2.69910000      -2.62500000       0.14060000
C       -3.77080000      -1.62770000       0.50250000
O       -4.93260000      -1.95190000       0.47150000
O       -3.40560000      -0.39700000       0.87980000
H       -0.42430000       2.02800000       0.63400000
H        0.41280000       1.45130000      -0.82990000
H       -1.33920000       1.75530000      -0.85640000
H       -1.52370000      -0.54560000      -1.67980000
H        0.13530000      -1.05790000      -1.38310000
H       -1.03340000      -3.09500000      -1.18840000
H       -1.09830000      -3.78120000       1.20610000
H       -1.25870000      -2.04660000       1.73160000
H       -3.16200000      -3.54660000      -0.19090000
