21
Properties=species:S:1:pos:R:3 gdb_109252=T pbc="F F F"
C       -0.33490000       1.31870000       0.33430000
C       -0.00840000      -0.14020000      -0.03010000
C        0.80710000      -0.29480000      -1.29210000
C        2.03850000      -0.80860000      -1.26980000
C        2.92580000      -1.00920000      -2.46760000
C        2.21200000      -0.83760000      -3.78730000
O        1.07060000      -1.67450000      -4.00410000
C        0.85900000      -0.26940000      -3.83610000
C        0.14900000       0.16300000      -2.57440000
H        0.58190000       1.90260000       0.46590000
H       -0.93500000       1.80700000      -0.43990000
H       -0.90330000       1.36560000       1.26840000
H        0.52810000      -0.60790000       0.80250000
H       -0.95240000      -0.69310000      -0.14240000
H        2.45910000      -1.11830000      -0.31510000
H        3.77020000      -0.30380000      -2.43550000
H        3.38180000      -2.00870000      -2.43330000
H        2.85490000      -0.73150000      -4.66200000
H        0.54010000       0.24030000      -4.74640000
H       -0.88960000      -0.19810000      -2.60650000
H        0.07430000       1.26010000      -2.58810000
