13
Properties=species:S:1:pos:R:3 gdb_21486=T pbc="F F F"
N        0.29420000       0.59900000       1.06980000
C       -0.05580000       0.09810000      -0.16650000
N        0.53720000       0.27330000      -1.28540000
C       -1.30560000      -0.70150000      -0.11290000
N       -1.93770000      -1.16430000      -1.18230000
N       -2.98150000      -1.81710000      -0.63220000
C       -2.94770000      -1.72930000       0.71280000
N       -1.89710000      -1.02710000       1.08000000
H        1.24480000       0.90590000       1.19460000
H       -0.15330000       0.17790000       1.87010000
H        1.37560000       0.84560000      -1.16380000
H       -3.64900000      -2.27960000      -1.22820000
H       -3.68580000      -2.17860000       1.35960000
