15
Properties=species:S:1:pos:R:3 gdb_124200=T pbc="F F F"
C        0.21210000       1.34350000      -0.70560000
C        0.05900000      -0.01660000      -0.21180000
C       -0.05790000      -1.14320000       0.19390000
C       -0.18370000      -2.49880000       0.70530000
N       -1.35140000      -3.19600000       0.16000000
C       -2.45680000      -2.74260000      -0.45510000
N       -3.24580000      -3.76230000      -0.71890000
N       -2.59640000      -4.85800000      -0.24550000
N       -1.46260000      -4.53510000       0.28370000
H        1.25230000       1.67410000      -0.61710000
H       -0.07030000       1.41280000      -1.76120000
H       -0.41190000       2.04500000      -0.14220000
H        0.69250000      -3.10330000       0.45030000
H       -0.26530000      -2.49490000       1.79860000
H       -2.63350000      -1.70680000      -0.68790000
