22
Properties=species:S:1:pos:R:3 gdb_104295=T pbc="F F F"
C       -0.51500000       1.63220000       0.17800000
C        0.01260000       0.19840000       0.04230000
C       -1.15160000      -0.79550000      -0.15110000
O       -1.90320000      -0.57520000      -1.33430000
C        1.04460000       0.06340000      -1.11620000
C        2.04990000      -1.03270000      -0.68520000
C        2.02400000      -0.97870000       0.83070000
N        2.13730000       0.40060000       1.36040000
C        0.81020000      -0.24690000       1.26520000
H        0.30600000       2.30890000       0.42920000
H       -0.96120000       1.98700000      -0.75830000
H       -1.27360000       1.71030000       0.96680000
H       -0.76160000      -1.81530000      -0.23890000
H       -1.80280000      -0.77340000       0.73880000
H       -2.33790000       0.27920000      -1.25340000
H        0.54140000      -0.16730000      -2.05790000
H        1.57110000       1.01190000      -1.24200000
H        1.72360000      -2.02660000      -1.01370000
H        3.04860000      -0.86390000      -1.09990000
H        2.44020000      -1.79350000       1.41520000
H        2.45620000       0.35870000       2.32530000
H        0.28460000      -0.49680000       2.18340000
