11
Properties=species:S:1:pos:R:3 gdb_1819=T pbc="F F F"
N       -0.09370000       1.31370000       0.01000000
C       -0.00510000       0.04420000       0.00320000
N        1.11600000      -0.78560000      -0.00730000
C        0.76390000      -2.13760000      -0.01200000
O        1.52930000      -3.07080000      -0.02090000
C       -0.73350000      -2.13990000      -0.00320000
C       -1.16850000      -0.87620000       0.00550000
H        0.82640000       1.75900000       0.00690000
H        2.07300000      -0.47280000      -0.01120000
H       -1.30170000      -3.05840000      -0.00440000
H       -2.18130000      -0.49990000       0.01320000
