16
Properties=species:S:1:pos:R:3 gdb_12723=T pbc="F F F"
O        0.41130000       1.26920000      -0.45300000
C        0.13140000      -0.03430000      -0.09000000
C        0.45200000      -1.08580000      -1.19040000
C       -0.99470000      -1.65450000      -1.12970000
C       -1.30740000      -0.76980000       0.09210000
C       -0.80830000      -1.36210000       1.44220000
C        0.40260000      -0.41930000       1.35320000
O        1.07820000       0.13340000       2.18030000
H        0.60890000       1.76060000       0.35530000
H        0.69050000      -0.57730000      -2.12610000
H        1.26380000      -1.77860000      -0.95630000
H       -1.57960000      -1.38630000      -2.01230000
H       -1.09180000      -2.73140000      -0.96690000
H       -2.24510000      -0.21830000       0.13810000
H       -1.43020000      -1.16110000       2.31790000
H       -0.57130000      -2.42960000       1.41830000
