17
Properties=species:S:1:pos:R:3 gdb_28934=T pbc="F F F"
O       -0.94950000       0.89430000       0.56010000
C       -0.25170000      -0.19290000       0.14970000
C       -0.10490000      -0.85250000      -1.04100000
N        0.75770000      -1.92020000      -0.87500000
C        1.11590000      -1.89380000       0.38100000
N        0.52090000      -0.85960000       1.07350000
C        0.73560000      -0.47850000       2.43750000
C       -0.41460000      -0.53380000       3.40650000
C        0.69840000      -1.54510000       3.50060000
H       -1.42910000       1.24570000      -0.19650000
H       -0.56560000      -0.62960000      -1.99130000
H        1.79060000      -2.57830000       0.87160000
H        1.45110000       0.32890000       2.56410000
H       -0.47770000       0.24960000       4.15240000
H       -1.36840000      -0.87080000       3.01950000
H        0.48160000      -2.55820000       3.18370000
H        1.41260000      -1.46730000       4.31190000
