25
Properties=species:S:1:pos:R:3 gdb_63457=T pbc="F F F"
C       -0.08710000       1.46090000      -0.12150000
C        0.07450000      -0.04290000       0.03300000
C       -1.06010000      -0.80270000      -0.63570000
C        1.46710000      -0.63410000      -0.03260000
C        0.72290000      -0.62730000       1.28870000
C        1.21410000       0.31280000       2.38170000
C        0.19100000      -1.91260000       1.87910000
C        0.37480000      -3.28440000       1.28060000
C        1.13080000      -2.90510000       2.52650000
H        0.76820000       2.02520000       0.25520000
H       -0.20320000       1.71790000      -1.18130000
H       -0.98230000       1.82150000       0.40000000
H       -1.11160000      -0.54790000      -1.70120000
H       -0.94580000      -1.88420000      -0.55500000
H       -2.02670000      -0.53500000      -0.19110000
H        1.59990000      -1.57070000      -0.56440000
H        2.30760000       0.04620000      -0.13510000
H        1.66900000       1.22300000       1.98610000
H        0.39210000       0.61150000       3.04380000
H        1.96560000      -0.18830000       3.00100000
H       -0.75060000      -1.77600000       2.40880000
H       -0.44710000      -3.98760000       1.36490000
H        0.94350000      -3.38420000       0.36310000
H        2.19530000      -2.72270000       2.42020000
H        0.84760000      -3.35700000       3.47070000
