13
Properties=species:S:1:pos:R:3 gdb_131101=T pbc="F F F"
O       -0.05870000       1.41820000       0.06830000
C        0.03080000       0.00570000      -0.00070000
C        0.70220000      -0.46510000      -1.21610000
C        1.27190000      -0.82530000      -2.21010000
C        0.70200000      -0.55700000       1.22970000
N        0.24180000      -1.43240000       2.06970000
C        1.27630000      -1.51720000       2.97140000
N        2.30130000      -0.75120000       2.72010000
O        1.92010000      -0.10020000       1.53850000
H        0.82980000       1.77670000      -0.04460000
H       -0.99880000      -0.36380000       0.02060000
H        1.76860000      -1.14890000      -3.09200000
H        1.26000000      -2.16320000       3.83690000
