15
Properties=species:S:1:pos:R:3 gdb_77274=T pbc="F F F"
O       -0.05550000       1.41870000       0.01960000
C        0.02220000       0.03180000       0.00050000
C       -1.28950000      -0.66670000       0.11290000
N       -2.45330000       0.12920000       0.25010000
C       -3.68150000      -0.42350000       0.46780000
O       -3.89410000      -1.61280000       0.54890000
C       -0.51950000      -0.71810000      -1.22560000
C       -0.97010000       0.06410000      -2.33440000
N       -1.31660000       0.72500000      -3.21910000
H        0.46840000       1.78060000      -0.70460000
H        0.89330000      -0.39910000       0.49050000
H       -1.35280000      -1.60910000       0.64270000
H       -2.33950000       1.13080000       0.20580000
H       -4.46550000       0.34960000       0.57420000
H       -0.04970000      -1.66170000      -1.48100000
