17
Properties=species:S:1:pos:R:3 gdb_48951=T pbc="F F F"
O       -0.07800000       0.05200000       0.24730000
C        0.07010000       1.20680000      -0.06440000
C        1.33760000       1.94460000      -0.03670000
O        2.50690000       1.29200000       0.38180000
C        3.44470000       2.37520000       0.24410000
C        3.21980000       2.83410000      -1.21480000
C        1.71200000       3.00910000      -1.07860000
C        1.43650000       3.42890000       0.34600000
C        2.77930000       3.50510000       1.06260000
H       -0.78170000       1.83590000      -0.41450000
H        4.43840000       2.04290000       0.53420000
H        3.74340000       3.76410000      -1.45280000
H        3.49440000       2.06130000      -1.93670000
H        1.05480000       3.25290000      -1.90220000
H        0.56440000       4.00000000       0.63360000
H        2.70880000       3.25780000       2.12450000
H        3.28040000       4.46930000       0.94080000
