15
Properties=species:S:1:pos:R:3 gdb_30388=T pbc="F F F"
C        0.04190000       1.46160000      -0.03570000
N        0.13730000       0.01720000      -0.06640000
C        0.61920000      -0.62100000       0.92640000
C        0.72030000      -2.07450000       0.90660000
C        1.22970000      -2.71710000       1.96370000
O        1.37790000      -4.04190000       2.07320000
O        1.66780000      -2.06120000       3.08270000
C        1.55220000      -0.69210000       3.05260000
N        1.09120000       0.01330000       2.11660000
H        0.59970000       1.87240000      -0.88670000
H       -1.00560000       1.75150000      -0.18620000
H        0.40950000       1.92460000       0.88650000
H        0.38450000      -2.62590000       0.04050000
H        1.76680000      -4.23670000       2.93500000
H        1.92680000      -0.27470000       3.98270000
