15
Properties=species:S:1:pos:R:3 gdb_66990=T pbc="F F F"
O        0.00320000       1.39280000      -0.06600000
C        0.01810000       0.01990000      -0.03190000
C       -1.21870000      -0.90940000       0.09970000
C       -0.77820000      -2.16250000       0.86560000
C        0.66390000      -2.17720000       0.29630000
O        0.46650000      -2.06000000      -1.12320000
C       -0.37750000      -0.91160000      -1.15110000
C        1.09830000      -0.73860000       0.66500000
O        1.99090000      -0.29890000       1.34030000
H        0.65560000       1.68410000       0.58690000
H       -2.21870000      -0.49800000       0.11520000
H       -0.79360000      -2.04370000       1.95250000
H       -1.34320000      -3.05520000       0.58390000
H        1.33450000      -2.99670000       0.53480000
H       -0.69990000      -0.59320000      -2.13190000
