11
Properties=species:S:1:pos:R:3 gdb_21417=T pbc="F F F"
N       -0.12730000       1.26460000      -0.40480000
C       -0.02220000       0.09830000       0.06120000
N       -1.13560000      -0.72490000       0.16220000
N       -1.15970000      -1.97070000       0.63330000
C       -0.04690000      -2.47880000       1.04090000
C        1.22790000      -1.76040000       1.01120000
O        2.28950000      -2.17170000       1.37220000
O        1.14720000      -0.46360000       0.50050000
H        0.77210000       1.73930000      -0.41360000
H       -2.01500000      -0.34500000      -0.15190000
H       -0.05460000      -3.48990000       1.42550000
