14
Properties=species:S:1:pos:R:3 gdb_130693=T pbc="F F F"
O       -0.00930000      -0.06970000       0.00390000
C        0.01700000       1.14200000       0.00940000
N       -1.07080000       1.99920000       0.02870000
C       -0.75980000       3.43070000       0.03160000
C        0.74160000       3.39370000       0.01100000
C        1.15650000       2.08510000      -0.00120000
N        2.50370000       2.08740000      -0.01940000
N        2.99690000       3.34380000      -0.01990000
C        1.92780000       4.14880000      -0.00140000
H       -2.00850000       1.63410000       0.03980000
H       -1.18750000       3.93310000      -0.84590000
H       -1.16330000       3.92430000       0.92530000
H        3.13790000       1.30610000      -0.03190000
H        2.07560000       5.21820000       0.00200000
