15
Properties=species:S:1:pos:R:3 gdb_104954=T pbc="F F F"
O        0.29130000       1.22440000       0.01380000
C        0.00190000      -0.08060000      -0.43220000
C       -1.41540000      -0.49390000      -0.06710000
C       -1.68250000      -1.85790000       0.44120000
O       -1.57910000      -0.76720000       1.34510000
C       -2.48480000       0.24530000      -0.68480000
C       -3.35320000       0.86500000      -1.25180000
C       -4.41720000       1.60390000      -1.88300000
O       -4.40760000       1.96240000      -3.03770000
H        0.17990000       1.23110000       0.97140000
H        0.12150000      -0.07480000      -1.51960000
H        0.69360000      -0.82490000      -0.01050000
H       -2.67810000      -2.28020000       0.32390000
H       -0.86280000      -2.57490000       0.46390000
H       -5.27150000       1.82500000      -1.21170000
