20
Properties=species:S:1:pos:R:3 gdb_35937=T pbc="F F F"
N       -0.29780000      -1.18270000      -0.25440000
C       -0.17180000      -0.03890000      -0.14390000
C       -0.02760000       1.41550000      -0.01030000
C       -0.73920000       1.93380000       1.26270000
C       -0.23090000       1.38360000       2.59990000
C        1.19470000       1.81960000       2.98670000
C        2.30470000       1.19610000       2.17360000
C        2.41480000       1.19900000       0.84540000
C        1.45850000       1.84250000      -0.13130000
H       -0.55430000       1.85490000      -0.86740000
H       -0.64970000       3.02800000       1.25740000
H       -1.80690000       1.70810000       1.16810000
H       -0.91880000       1.72760000       3.38090000
H       -0.28880000       0.28900000       2.59340000
H        1.25870000       2.91690000       2.91950000
H        1.35480000       1.57960000       4.04240000
H        3.08880000       0.70030000       2.74100000
H        3.27620000       0.70690000       0.40190000
H        1.79080000       1.63030000      -1.15140000
H        1.48120000       2.93620000      -0.02360000
