16
Properties=species:S:1:pos:R:3 gdb_48133=T pbc="F F F"
O       -0.88070000       1.19290000       0.09220000
C        0.27400000       0.93310000      -0.12690000
C        1.45100000       1.90540000      -0.21400000
O        2.55450000       1.42820000      -0.44780000
N        1.24760000       3.23480000      -0.03480000
C        2.39340000       4.16670000      -0.12090000
C        1.77420000       5.56550000       0.13180000
C        0.30900000       5.26440000       0.34140000
C        0.07060000       3.95700000       0.23830000
H        0.63810000      -0.09960000      -0.30050000
H        3.14330000       3.88340000       0.62200000
H        2.86190000       4.07030000      -1.10360000
H        2.22190000       6.05380000       1.00480000
H        1.93700000       6.23880000      -0.71740000
H       -0.44210000       6.01330000       0.54700000
H       -0.85510000       3.41440000       0.33180000
