17
Properties=species:S:1:pos:R:3 gdb_84754=T pbc="F F F"
O       -0.04460000       1.40990000      -0.11270000
C       -0.02240000      -0.02020000      -0.02980000
C        0.80620000      -0.50760000       1.12900000
C        0.27140000      -0.94060000       2.27230000
C       -1.21450000      -1.00440000       2.53590000
C       -1.99900000      -0.28580000       1.44490000
O       -2.89130000       0.49430000       1.67300000
C       -1.47850000      -0.55650000       0.03440000
O       -2.27350000      -0.00630000      -0.97200000
H       -0.13950000       1.75540000       0.78260000
H        0.40750000      -0.34180000      -0.98370000
H        1.88540000      -0.46150000       1.01410000
H        0.91810000      -1.26330000       3.08470000
H       -1.54120000      -2.05480000       2.57470000
H       -1.47140000      -0.56430000       3.50500000
H       -1.44810000      -1.64220000      -0.12420000
H       -2.21810000       0.95210000      -0.86550000
