17
Properties=species:S:1:pos:R:3 gdb_65078=T pbc="F F F"
O        0.19680000       1.27800000       0.55080000
C        0.10240000      -0.01650000       0.01000000
C        0.96040000      -0.30850000      -1.18140000
C        1.27470000      -0.95330000       0.15360000
C       -1.30060000      -0.56050000       0.07150000
C       -2.25520000      -0.33530000      -1.03480000
O       -1.63450000      -1.60090000      -0.85130000
C       -1.88280000      -0.75040000       1.45200000
O       -2.95560000      -1.24950000       1.66560000
H        0.42220000       1.20550000       1.48390000
H        0.54910000      -0.93920000      -1.96010000
H        1.60350000       0.49900000      -1.50980000
H        2.13790000      -0.58590000       0.69840000
H        1.07400000      -2.01310000       0.26690000
H       -3.31820000      -0.30950000      -0.80710000
H       -1.91690000       0.23760000      -1.89590000
H       -1.23810000      -0.38780000       2.28400000
