25
Properties=species:S:1:pos:R:3 gdb_101171=T pbc="F F F"
C       -1.78100000       0.56610000       1.75800000
O       -1.88230000      -0.58970000       0.95970000
C       -0.64490000      -1.24410000       0.69970000
C       -0.17540000      -2.04860000       1.92110000
C       -0.74340000      -2.14090000      -0.52490000
C       -1.89970000      -3.05270000      -0.89350000
C       -3.20490000      -3.13140000      -0.12670000
C       -1.53420000      -1.88320000      -1.79220000
C       -2.44430000      -0.69370000      -2.02300000
H       -1.46750000       0.34480000       2.78820000
H       -1.07140000       1.29160000       1.33050000
H       -2.77360000       1.02250000       1.79080000
H        0.11160000      -0.46910000       0.48100000
H       -0.91210000      -2.81780000       2.17000000
H        0.77990000      -2.53980000       1.71160000
H       -0.03150000      -1.40810000       2.79610000
H        0.23500000      -2.58260000      -0.70660000
H       -1.58720000      -4.02310000      -1.27490000
H       -3.48840000      -2.17480000       0.30990000
H       -4.01490000      -3.47230000      -0.78230000
H       -3.12490000      -3.85420000       0.69370000
H       -0.99970000      -2.16930000      -2.69650000
H       -3.00610000      -0.41940000      -1.13180000
H       -1.86330000       0.18450000      -2.32810000
H       -3.15350000      -0.91150000      -2.83010000
