19
Properties=species:S:1:pos:R:3 gdb_117424=T pbc="F F F"
C        0.08300000       1.53060000       0.19170000
C        0.01240000       0.02440000       0.03250000
O        0.69060000      -0.56620000       1.16110000
C        0.72780000      -1.91070000       1.18670000
O        0.23700000      -2.61490000       0.33870000
C        1.46370000      -2.40540000       2.41570000
C        1.52240000      -3.94040000       2.47010000
C        2.22850000      -4.42400000       3.64960000
C        2.81480000      -4.79830000       4.62980000
H        1.12140000       1.87320000       0.21320000
H       -0.42280000       2.01610000      -0.64810000
H       -0.40350000       1.84910000       1.11780000
H       -1.01990000      -0.33890000       0.01100000
H        0.49720000      -0.31510000      -0.88820000
H        2.47100000      -1.97570000       2.41630000
H        0.96880000      -2.00180000       3.30530000
H        0.50330000      -4.34200000       2.44870000
H        2.00450000      -4.31610000       1.56080000
H        3.32990000      -5.14570000       5.49070000
