21
Properties=species:S:1:pos:R:3 gdb_108635=T pbc="F F F"
C        0.22420000       1.51510000       0.09230000
C        0.13920000       0.02350000      -0.01040000
C       -0.07300000      -0.73720000      -1.09760000
C       -0.26860000      -0.29660000      -2.51660000
O        0.66990000      -0.89910000      -3.40980000
C       -0.13840000      -2.20940000      -0.73590000
C        0.48000000      -2.25900000       0.67930000
O        1.86760000      -2.57190000       0.63750000
C        0.23630000      -0.83680000       1.23550000
H        1.15580000       1.81980000       0.58560000
H        0.17540000       2.01280000      -0.87900000
H       -0.59270000       1.91010000       0.71030000
H       -1.24960000      -0.62560000      -2.88150000
H       -0.24580000       0.79900000      -2.60060000
H        1.54840000      -0.63160000      -3.12060000
H       -1.18100000      -2.55950000      -0.73230000
H        0.41040000      -2.85230000      -1.43050000
H        0.03780000      -3.03660000       1.30630000
H        2.28870000      -1.92140000       0.06410000
H        1.04440000      -0.54120000       1.91470000
H       -0.69810000      -0.78170000       1.81310000
