18
Properties=species:S:1:pos:R:3 gdb_55446=T pbc="F F F"
N        0.01160000       1.30490000      -0.35440000
C        0.04460000       0.04080000       0.15900000
O        1.05540000      -0.44480000       0.62860000
C       -1.30210000      -0.69460000       0.13450000
C       -1.08280000      -2.20410000      -0.05280000
O       -2.27690000      -2.92680000       0.18990000
C       -2.69110000      -2.84730000       1.53860000
C       -2.64820000      -1.44670000       2.08300000
C       -2.04120000      -0.45620000       1.43630000
H        0.86620000       1.83780000      -0.36500000
H       -0.79900000       1.67900000      -0.81460000
H       -1.90370000      -0.30560000      -0.69960000
H       -0.78880000      -2.43490000      -1.08010000
H       -0.27450000      -2.52390000       0.61790000
H       -3.71570000      -3.23710000       1.56700000
H       -2.07930000      -3.51340000       2.17530000
H       -3.14130000      -1.27510000       3.03610000
H       -2.04030000       0.55410000       1.83660000
