16
Properties=species:S:1:pos:R:3 gdb_64786=T pbc="F F F"
C        0.02480000       1.56820000      -0.45960000
C       -0.04220000       0.09510000      -0.13120000
C       -1.40240000      -0.43900000       0.33090000
C       -1.91460000       0.23370000       1.51450000
C       -2.33430000       0.79920000       2.49610000
C       -2.81490000       1.43590000       3.60400000
N       -3.22600000       1.97940000       4.54480000
C        0.88770000      -0.85760000      -0.75430000
O        1.06610000      -0.42990000       0.59970000
H        1.03800000       1.84140000      -0.76160000
H       -0.66360000       1.81820000      -1.27400000
H       -0.24970000       2.17020000       0.41180000
H       -2.13020000      -0.33230000      -0.48460000
H       -1.30880000      -1.51050000       0.54010000
H        0.59860000      -1.90030000      -0.88140000
H        1.63080000      -0.49430000      -1.46240000
