22
Properties=species:S:1:pos:R:3 gdb_122087=T pbc="F F F"
C       -0.09540000       1.52060000       0.03230000
C       -0.03050000       0.00410000       0.07840000
O       -1.34780000      -0.50470000      -0.03140000
C       -1.41520000      -1.90530000       0.00960000
C       -2.89430000      -2.31860000       0.00350000
C       -3.06370000      -3.84960000      -0.12100000
C       -4.52210000      -4.29840000      -0.22990000
C       -3.56870000      -1.81050000       1.20350000
N       -4.10720000      -1.44760000       2.15960000
H        0.90840000       1.94650000       0.12030000
H       -0.53480000       1.85790000      -0.91060000
H       -0.70940000       1.90120000       0.85290000
H        0.59420000      -0.38470000      -0.74360000
H        0.42640000      -0.33760000       1.02170000
H       -0.91830000      -2.35330000      -0.86740000
H       -0.91840000      -2.30180000       0.91030000
H       -3.36310000      -1.83400000      -0.86250000
H       -2.50650000      -4.17050000      -1.00870000
H       -2.58740000      -4.32990000       0.74150000
H       -5.00680000      -3.85980000      -1.10880000
H       -4.58450000      -5.38630000      -0.32190000
H       -5.09480000      -4.00030000       0.65310000
