23
Properties=species:S:1:pos:R:3 gdb_110301=T pbc="F F F"
C       -0.42360000       0.85030000      -0.13060000
O       -0.40810000      -0.54310000       0.08920000
C        0.49890000      -0.95340000       1.08720000
C        0.31910000      -2.38440000       1.57910000
C        0.63300000      -3.42660000       0.53980000
C        0.19810000      -3.42170000      -0.91460000
C        1.78120000      -2.70450000       1.19160000
C        2.00450000      -1.26390000       0.70970000
C        2.55470000      -0.99150000      -0.68710000
H        0.53870000       1.22680000      -0.50590000
H       -1.19390000       1.05240000      -0.87900000
H       -0.67180000       1.39960000       0.79120000
H        0.45940000      -0.24120000       1.92400000
H       -0.21180000      -2.63580000       2.49000000
H        0.54070000      -4.41930000       0.98160000
H        0.92120000      -3.95320000      -1.54380000
H       -0.76370000      -3.93830000      -1.01000000
H        0.05890000      -2.41430000      -1.30280000
H        2.50870000      -3.25100000       1.78170000
H        2.64080000      -0.74740000       1.43710000
H        1.90270000      -1.36570000      -1.47730000
H        2.69920000       0.08210000      -0.85160000
H        3.53160000      -1.47370000      -0.80630000
