17
Properties=species:S:1:pos:R:3 gdb_105740=T pbc="F F F"
C       -0.41600000       1.38710000       0.16190000
O       -0.11160000      -0.00590000       0.14710000
C        0.76360000      -0.44670000       1.13630000
O        0.30080000      -0.19650000       2.45930000
C       -0.10370000      -1.41460000       3.08590000
C        0.34900000      -2.49470000       2.14780000
C        0.85770000      -1.95470000       1.04750000
C        2.16780000       0.18790000       1.04150000
O        2.61540000       0.71430000       0.05990000
H        0.45880000       1.99480000      -0.08990000
H       -1.18530000       1.53480000      -0.59840000
H       -0.80980000       1.69110000       1.13790000
H        0.37240000      -1.47350000       4.07360000
H       -1.19290000      -1.43410000       3.24140000
H        0.22660000      -3.55000000       2.35640000
H        1.24100000      -2.45280000       0.16830000
H        2.74990000       0.07450000       1.98260000
