18
Properties=species:S:1:pos:R:3 gdb_85101=T pbc="F F F"
C       -0.37610000       1.45750000      -0.02210000
C        0.13650000       0.03710000      -0.04470000
O        1.41410000      -0.08260000      -0.76000000
C        2.02680000      -0.68450000       0.31100000
N        3.19230000      -1.11360000       0.46460000
C        0.80330000      -0.60050000       1.23000000
C        1.02080000       0.30110000       2.45400000
C        0.23440000      -1.88270000       1.61060000
C       -0.26130000      -2.93020000       1.92880000
H        0.35830000       2.14930000       0.39650000
H       -0.60800000       1.78170000      -1.04100000
H       -1.29490000       1.51830000       0.57000000
H       -0.59120000      -0.63930000      -0.50050000
H        3.75450000      -0.98580000      -0.37850000
H        1.47360000       1.25400000       2.17080000
H        0.07390000       0.49280000       2.96580000
H        1.69630000      -0.20040000       3.15030000
H       -0.68230000      -3.86410000       2.20910000
