17
Properties=species:S:1:pos:R:3 gdb_47795=T pbc="F F F"
N       -0.00270000       1.28900000       0.35330000
C        0.03270000       0.05910000       0.07230000
O        1.22610000      -0.64620000      -0.04130000
C        1.64500000      -0.95760000      -1.36360000
O        0.92290000      -1.98870000      -1.95820000
C       -0.38480000      -1.63160000      -2.37600000
C       -1.39820000      -1.50700000      -1.25350000
C       -1.16430000      -2.13020000       0.06830000
N       -1.17400000      -0.66250000      -0.06230000
H        0.95230000       1.64590000       0.41490000
H        1.59810000      -0.04410000      -1.97900000
H        2.67290000      -1.30920000      -1.26760000
H       -0.35320000      -0.69500000      -2.95610000
H       -0.71510000      -2.42770000      -3.05120000
H       -2.41770000      -1.42470000      -1.62760000
H       -1.99490000      -2.52630000       0.64450000
H       -0.20630000      -2.61590000       0.21650000
