22
Properties=species:S:1:pos:R:3 gdb_123121=T pbc="F F F"
N       -0.01370000       1.31840000      -0.25270000
C        0.05930000       0.02980000       0.19820000
O        1.08640000      -0.44100000       0.64640000
C       -1.24680000      -0.75820000       0.10310000
C       -1.01310000      -2.26600000      -0.01250000
C       -2.30820000      -3.08060000       0.05690000
C       -2.07020000      -4.58810000      -0.06900000
C       -3.35410000      -5.40290000       0.01020000
O       -3.01410000      -6.77480000      -0.12610000
H        0.78740000       1.91350000      -0.11830000
H       -0.87960000       1.73480000      -0.54620000
H       -1.82130000      -0.54010000       1.01480000
H       -1.85220000      -0.38890000      -0.73420000
H       -0.49250000      -2.47970000      -0.95440000
H       -0.32700000      -2.56940000       0.78440000
H       -2.82020000      -2.86740000       1.00620000
H       -2.99420000      -2.75070000      -0.73650000
H       -1.57480000      -4.81360000      -1.02140000
H       -1.39180000      -4.92960000       0.72220000
H       -3.85750000      -5.21100000       0.97250000
H       -4.04710000      -5.08360000      -0.78630000
H       -3.82240000      -7.29230000      -0.06850000
