17
Properties=species:S:1:pos:R:3 gdb_112163=T pbc="F F F"
C       -0.00860000       1.38090000      -0.06440000
O       -0.04320000      -0.02910000       0.11620000
C       -1.30460000      -0.58140000      -0.02280000
O       -1.77790000      -0.49510000      -1.37850000
C       -1.99760000      -1.75490000      -1.86890000
O       -2.39920000      -1.96390000      -2.97800000
C       -1.66690000      -2.74200000      -0.79580000
C       -1.80340000      -4.20590000      -1.03770000
C       -1.26450000      -2.05620000       0.27200000
H        1.01420000       1.69840000       0.14550000
H       -0.27520000       1.65670000      -1.09020000
H       -0.69390000       1.88560000       0.63200000
H       -2.03790000      -0.03400000       0.59250000
H       -2.82990000      -4.45080000      -1.33030000
H       -1.16310000      -4.51640000      -1.87010000
H       -1.53800000      -4.78780000      -0.15260000
H       -0.92850000      -2.43750000       1.22710000
