21
Properties=species:S:1:pos:R:3 gdb_123124=T pbc="F F F"
N       -0.03160000       1.31280000      -0.05170000
C       -0.05430000      -0.06890000      -0.23780000
O        0.74880000      -0.64420000      -0.94880000
N       -1.04340000      -0.70580000       0.47550000
C       -1.13270000      -2.15540000       0.52530000
C       -2.50670000      -2.67760000       0.09260000
C       -2.59980000      -4.20340000       0.17310000
C       -3.95610000      -4.73910000      -0.26540000
O       -3.93280000      -6.15200000      -0.13190000
H        0.54020000       1.77330000      -0.74400000
H       -0.91660000       1.77220000       0.10650000
H       -1.50890000      -0.18460000       1.20100000
H       -0.35110000      -2.52890000      -0.14030000
H       -0.90000000      -2.51530000       1.53750000
H       -3.28460000      -2.22560000       0.72430000
H       -2.70390000      -2.33680000      -0.93140000
H       -1.82560000      -4.66250000      -0.45370000
H       -2.41010000      -4.54230000       1.19930000
H       -4.75070000      -4.29310000       0.35620000
H       -4.15400000      -4.43950000      -1.30770000
H       -4.78080000      -6.49650000      -0.42620000
