19
Properties=species:S:1:pos:R:3 gdb_103446=T pbc="F F F"
C       -0.16300000       1.63080000      -0.15110000
C       -0.12010000       0.11900000      -0.15140000
C       -1.35620000      -0.53610000       0.44630000
O       -1.43720000      -0.29830000       1.83890000
C        0.67460000      -0.66730000      -1.12830000
C        1.79600000       0.00850000      -1.91840000
N        2.76520000       0.47500000      -0.90610000
C        2.31300000       0.11840000       0.22750000
N        1.10900000      -0.63830000       0.30230000
H        0.79460000       2.08990000      -0.40130000
H       -0.90450000       1.97280000      -0.88170000
H       -0.47740000       1.98540000       0.83470000
H       -2.26220000      -0.10720000       0.00440000
H       -1.34530000      -1.61300000       0.22410000
H       -0.62130000      -0.65420000       2.21200000
H        0.28500000      -1.61740000      -1.48280000
H        2.28670000      -0.69760000      -2.59700000
H        1.46410000       0.85890000      -2.52530000
H        2.82640000       0.33940000       1.15920000
