23
Properties=species:S:1:pos:R:3 gdb_96196=T pbc="F F F"
C        0.06280000       1.57920000       0.11410000
C        0.02830000       0.05460000       0.05120000
C        0.43950000      -0.46190000      -1.33950000
C        0.18360000      -1.93240000      -1.61730000
C       -0.52470000      -2.22920000      -2.91460000
C        0.57340000      -2.91860000      -0.80420000
C        1.31510000      -2.77130000       0.50250000
C        0.73380000      -1.74470000       1.48140000
O        0.89810000      -0.39980000       1.07980000
H        1.06770000       1.94780000      -0.11620000
H       -0.63920000       2.01620000      -0.60200000
H       -0.20230000       1.91940000       1.11830000
H       -0.99520000      -0.29650000       0.26700000
H       -0.08930000       0.13690000      -2.09000000
H        1.50830000      -0.23720000      -1.46750000
H        0.02940000      -1.81760000      -3.76880000
H       -0.64870000      -3.30320000      -3.07660000
H       -1.51850000      -1.76260000      -2.94030000
H        0.36140000      -3.94020000      -1.11390000
H        1.33620000      -3.74070000       1.01440000
H        2.36550000      -2.50140000       0.31890000
H       -0.33210000      -1.96330000       1.65790000
H        1.25770000      -1.82630000       2.44040000
