17
Properties=species:S:1:pos:R:3 gdb_74387=T pbc="F F F"
C       -0.00770000       1.51910000       0.11070000
C       -0.10620000       0.03350000      -0.01090000
C       -0.06150000      -0.73390000      -1.11220000
C       -0.05240000      -2.16910000      -0.73040000
O       -0.41130000      -3.18570000      -1.60730000
C        0.91090000      -2.55850000       0.46310000
O        1.37900000      -1.42840000       1.16030000
C       -0.02260000      -0.90200000       1.17670000
C       -0.53620000      -2.28600000       0.69000000
H        0.92300000       1.81540000       0.61090000
H       -0.03000000       2.00150000      -0.87020000
H       -0.83140000       1.92820000       0.70940000
H        0.05640000      -0.38850000      -2.13300000
H        0.33380000      -3.35840000      -2.19240000
H        1.52000000      -3.45500000       0.44850000
H       -0.27390000      -0.52190000       2.16640000
H       -1.37180000      -2.88270000       1.03230000
