21
Properties=species:S:1:pos:R:3 gdb_111634=T pbc="F F F"
C        0.22680000       1.49440000      -0.08890000
C       -0.18140000       0.03690000       0.15740000
C        0.64780000      -0.62010000       1.23890000
C        0.79170000      -2.12270000       1.43590000
C        0.50120000      -3.07170000       0.27470000
C        1.53560000      -2.69910000      -0.76970000
C        2.34320000      -1.72200000      -0.34960000
C        1.99330000      -1.26450000       1.02870000
O        3.01360000      -0.87840000       1.89920000
H        1.26880000       1.55800000      -0.41930000
H       -0.40010000       1.95840000      -0.85690000
H        0.13430000       2.09200000       0.82460000
H       -1.23930000      -0.00580000       0.44840000
H       -0.09530000      -0.52730000      -0.77670000
H        0.61540000      -0.09400000       2.19190000
H        0.70900000      -2.49260000       2.45140000
H        0.59240000      -4.12330000       0.57660000
H       -0.51870000      -2.95710000      -0.11700000
H        1.55950000      -3.15580000      -1.75310000
H        3.15240000      -1.27230000      -0.91420000
H        3.60770000      -1.63030000       2.00620000
