23
Properties=species:S:1:pos:R:3 gdb_121728=T pbc="F F F"
C        0.03380000       1.62790000      -0.09620000
C       -0.00130000       0.10050000      -0.00530000
C        0.67760000      -0.57670000      -1.19580000
C        0.66030000      -2.09850000      -1.13690000
O        0.14810000      -2.70080000      -0.21860000
C        1.32300000      -2.82530000      -2.29710000
C        1.26580000      -4.33990000      -2.16790000
O        1.90860000      -4.89340000      -3.29650000
C        1.91500000      -6.30040000      -3.28220000
H        1.06310000       2.00310000      -0.12930000
H       -0.47590000       1.98680000      -0.99760000
H       -0.45820000       2.08590000       0.76730000
H        0.48260000      -0.23470000       0.91830000
H       -1.03650000      -0.25080000       0.06120000
H        0.20840000      -0.27000000      -2.14210000
H        1.72510000      -0.25400000      -1.28630000
H        0.84730000      -2.51100000      -3.23520000
H        2.36680000      -2.49510000      -2.37720000
H        1.75780000      -4.66240000      -1.23700000
H        0.21990000      -4.67840000      -2.10500000
H        2.44620000      -6.69860000      -2.40300000
H        0.89400000      -6.71450000      -3.27910000
H        2.42890000      -6.63550000      -4.18660000
