17
Properties=species:S:1:pos:R:3 gdb_75782=T pbc="F F F"
C       -0.09060000       1.71400000       0.41950000
C       -0.09110000       0.21860000       0.12520000
C        0.98410000      -0.25930000      -0.90380000
C        1.88100000      -0.52810000       0.29660000
O        3.04480000      -0.35790000       0.53630000
C        0.69780000      -0.62390000       1.25680000
O        0.85480000      -0.13080000       2.54100000
C       -1.47290000      -0.33960000      -0.10390000
O       -1.70000000      -1.35120000      -0.72000000
H        0.92410000       2.08220000       0.59860000
H       -0.50570000       2.28050000      -0.42020000
H       -0.68210000       1.93370000       1.31310000
H        0.64410000      -1.17490000      -1.39760000
H        1.34990000       0.45750000      -1.64030000
H        0.27060000      -1.63360000       1.28360000
H        1.73050000       0.27510000       2.58850000
H       -2.29650000       0.23550000       0.37550000
