16
Properties=species:S:1:pos:R:3 gdb_6993=T pbc="F F F"
C       -0.12350000       1.56480000       0.01070000
C       -0.09550000       0.03810000      -0.04470000
O       -1.38260000      -0.51730000       0.11860000
C        0.70390000      -0.53970000      -1.25720000
O        0.86930000       0.37080000      -2.31290000
C        1.93420000      -0.81770000      -0.32600000
C        0.98020000      -0.60730000       0.85110000
O        0.94480000      -0.96870000       1.99400000
H        0.86760000       2.00110000      -0.13950000
H       -0.78290000       1.93930000      -0.77570000
H       -0.50720000       1.88760000       0.98300000
H       -1.49330000      -0.69640000       1.06080000
H        0.22980000      -1.47350000      -1.58190000
H        1.33640000      -0.07160000      -3.02800000
H        2.44240000      -1.78220000      -0.38500000
H        2.67060000      -0.01030000      -0.40160000
