15
Properties=species:S:1:pos:R:3 gdb_81523=T pbc="F F F"
O        0.18030000       1.41090000      -0.10640000
C        0.10040000       0.03440000      -0.05040000
C        0.00620000      -0.65060000       1.35470000
N       -1.37110000      -0.02390000       1.44690000
C       -1.31770000      -0.62770000       0.05430000
C       -0.62620000      -1.89420000       0.63090000
O        0.11610000      -2.65700000      -0.27820000
C       -1.46000000      -2.74750000       1.48830000
N       -2.07270000      -3.46150000       2.16090000
H       -0.45670000       1.73600000       0.54800000
H        0.79330000      -0.39890000      -0.76600000
H        0.70650000      -0.63980000       2.19070000
H       -1.98780000      -0.55900000       2.06390000
H       -2.16300000      -0.58860000      -0.63250000
H        0.59900000      -3.34020000       0.20080000
