15
Properties=species:S:1:pos:R:3 gdb_72078=T pbc="F F F"
C        0.01920000       1.46350000      -0.02210000
C       -0.00950000      -0.02690000       0.01460000
O        1.03820000      -0.68450000      -0.70850000
C        0.71660000      -2.02780000      -0.38010000
O        0.57720000      -2.04380000       1.03500000
C       -0.30890000      -0.93630000       1.15870000
C       -1.26140000      -0.92650000      -0.04960000
C       -0.77070000      -2.10190000      -0.83970000
O       -1.31590000      -2.85670000      -1.59170000
H        0.98980000       1.82810000       0.32830000
H       -0.14280000       1.83290000      -1.03900000
H       -0.76090000       1.87630000       0.62300000
H        1.44810000      -2.74230000      -0.74140000
H       -0.57410000      -0.66280000       2.16910000
H       -2.27960000      -0.57060000      -0.03460000
