15
Properties=species:S:1:pos:R:3 gdb_78682=T pbc="F F F"
O        0.01020000       1.46290000      -0.06250000
C        0.07320000       0.06260000       0.01060000
C        0.00510000      -0.61010000       1.40120000
C       -1.52790000      -0.29420000       1.54300000
C       -1.29680000      -0.62690000       0.01640000
C       -0.72030000      -1.88600000       0.75560000
O       -0.14860000      -2.95330000       0.11680000
C       -1.80770000      -1.77170000       1.82300000
O       -2.47230000      -2.47450000       2.52260000
H        0.90690000       1.81100000      -0.07530000
H        0.81590000      -0.35030000      -0.68390000
H        0.72310000      -0.63290000       2.22110000
H       -1.95940000       0.61510000       1.94270000
H       -2.07120000      -0.64690000      -0.74930000
H       -0.02250000      -3.66070000       0.75930000
