21
Properties=species:S:1:pos:R:3 gdb_81382=T pbc="F F F"
C       -0.30170000       1.54480000       0.05390000
C        0.07550000       0.06370000       0.00590000
O        0.81270000      -0.24270000      -1.18530000
C        2.22270000      -0.38590000      -1.06580000
C        2.64000000      -0.89490000       0.31780000
C        1.50690000      -1.79420000       0.88920000
C        0.80990000      -0.44930000       1.25240000
C        2.22210000       0.17380000       1.36170000
O        2.72290000      -0.04350000       2.66730000
H        0.57680000       2.18990000       0.14180000
H       -0.83330000       1.82020000      -0.86090000
H       -0.95780000       1.74560000       0.90790000
H       -0.85150000      -0.51900000      -0.09060000
H        2.51670000      -1.09750000      -1.84610000
H        2.73250000       0.56890000      -1.28000000
H        3.67640000      -1.24670000       0.31810000
H        0.98940000      -2.46130000       0.19620000
H        1.82880000      -2.33530000       1.77800000
H        0.17690000      -0.39080000       2.14060000
H        2.35050000       1.22430000       1.06460000
H        3.67250000       0.11430000       2.65060000
