13
Properties=species:S:1:pos:R:3 gdb_20645=T pbc="F F F"
C       -0.00060000       1.52650000      -0.00960000
C       -0.02900000       0.02670000       0.00800000
C       -1.14580000      -0.71370000      -0.14700000
C       -1.09580000      -2.16620000      -0.11880000
O       -2.02130000      -2.92040000      -0.24440000
O        0.17220000      -2.72620000       0.07600000
N        1.32260000      -1.98320000       0.23610000
C        1.20490000      -0.70110000       0.20100000
H        0.65470000       1.89250000      -0.80820000
H       -0.99830000       1.94220000      -0.16310000
H        0.39770000       1.91800000       0.93340000
H       -2.12630000      -0.27690000      -0.29820000
H        2.14400000      -0.17050000       0.33190000
