19
Properties=species:S:1:pos:R:3 gdb_37368=T pbc="F F F"
C        0.00670000       1.51090000       0.29760000
C        1.38960000       2.13780000      -0.02270000
C        2.10900000       1.43040000      -1.18210000
O        2.16130000       0.02710000      -0.86950000
C        0.83170000      -0.42550000      -1.18080000
C       -0.08520000      -0.00500000      -0.02120000
C        0.54840000       0.24780000      -2.53590000
O       -0.05290000       1.54990000      -2.47550000
C        1.37800000       1.45320000      -2.53680000
H       -0.21900000       1.66700000       1.35800000
H       -0.75850000       2.03710000      -0.27040000
H        1.27890000       3.20760000      -0.23220000
H        2.05230000       2.04860000       0.84480000
H        3.13870000       1.78390000      -1.28450000
H        0.86910000      -1.51370000      -1.28210000
H        0.23540000      -0.59140000       0.84670000
H       -1.12420000      -0.28390000      -0.22970000
H        0.31350000      -0.33750000      -3.42000000
H        1.84020000       1.88070000      -3.42160000
