17
Properties=species:S:1:pos:R:3 gdb_112312=T pbc="F F F"
C       -0.01100000       1.31050000      -0.25170000
O       -0.05290000      -0.11020000      -0.21740000
C       -1.27070000      -0.63030000       0.18460000
O       -2.29120000      -0.39760000      -0.80200000
C       -2.80050000      -1.58440000      -1.27800000
N       -3.68210000      -1.69190000      -2.16840000
N       -2.22530000      -2.69870000      -0.60330000
C       -0.78540000      -2.86760000      -0.92310000
C       -1.20640000      -2.14360000       0.29630000
H        1.01300000       1.58890000      -0.50600000
H       -0.69740000       1.71070000      -1.00600000
H       -0.26790000       1.73750000       0.72830000
H       -1.60940000      -0.14890000       1.11360000
H       -3.95300000      -0.77000000      -2.50870000
H       -0.43400000      -3.89100000      -0.85030000
H       -0.37380000      -2.28440000      -1.74030000
H       -1.12000000      -2.58610000       1.28210000
