23
Properties=species:S:1:pos:R:3 gdb_83335=T pbc="F F F"
C       -0.16010000       1.63790000      -0.01490000
C        0.01740000       0.12750000       0.00210000
C        1.14320000      -0.58570000      -0.81020000
C        2.43590000       0.05270000      -0.26920000
C        2.09450000       0.03710000       1.25850000
C        0.69780000      -0.61760000       1.20930000
C       -0.02580000      -0.87350000       2.51000000
C        0.97210000      -1.76840000       0.19330000
O       -0.16750000      -2.58370000       0.02180000
H        0.76730000       2.18360000       0.18080000
H       -0.53780000       1.97200000      -0.98800000
H       -0.89050000       1.94980000       0.74050000
H       -0.93610000      -0.35940000      -0.21020000
H        1.06820000      -0.73980000      -1.88910000
H        3.32080000      -0.54590000      -0.50610000
H        2.60690000       1.05970000      -0.65840000
H        2.80120000      -0.56200000       1.84180000
H        2.06910000       1.03670000       1.70170000
H       -0.28930000       0.06710000       3.00760000
H       -0.94640000      -1.43870000       2.33790000
H        0.59700000      -1.44920000       3.20490000
H        1.86700000      -2.38200000       0.37870000
H       -0.05140000      -3.09270000      -0.78640000
