15
Properties=species:S:1:pos:R:3 gdb_58082=T pbc="F F F"
C        0.14280000       1.54130000      -0.12110000
C        0.06610000       0.02600000       0.01500000
O        0.73430000      -0.47260000       1.14660000
C       -1.42080000      -0.48580000       0.02100000
O       -2.03130000      -0.01420000      -1.15760000
C       -1.42970000      -1.96540000       0.06820000
N       -1.46900000      -3.11890000       0.04140000
C       -2.10250000       0.03290000       1.23330000
N       -2.61050000       0.48290000       2.16800000
H        1.19350000       1.83950000      -0.15350000
H       -0.35150000       1.87970000      -1.03350000
H       -0.33330000       2.03710000       0.73240000
H        0.52830000      -0.45660000      -0.85150000
H        0.50000000       0.06940000       1.90990000
H       -2.92040000      -0.38250000      -1.22870000
