13
Properties=species:S:1:pos:R:3 gdb_25286=T pbc="F F F"
O       -0.14140000      -0.00100000      -0.00030000
C       -0.02550000       1.20560000       0.00820000
C        1.22410000       1.90580000       0.00010000
C        2.26980000       2.52240000      -0.00650000
C        3.48280000       3.21170000      -0.01490000
C        4.80160000       2.77980000      -0.03340000
N        5.66120000       3.83500000      -0.03470000
C        4.89620000       4.91140000      -0.01740000
N        3.57950000       4.59840000      -0.00510000
H       -0.91200000       1.87300000       0.02340000
H        5.14630000       1.75730000      -0.04540000
H        5.24710000       5.93260000      -0.01320000
H        2.80080000       5.23660000       0.00870000
