20
Properties=species:S:1:pos:R:3 gdb_62177=T pbc="F F F"
C       -0.15080000       1.59080000      -0.09950000
C       -0.05680000       0.05680000       0.02320000
C        0.74640000      -0.42170000       1.25740000
C        2.22810000      -0.03710000       1.21170000
C        3.00950000      -0.61870000       2.40820000
C        4.42140000      -0.25710000       2.38920000
C        5.58100000       0.05630000       2.34800000
C       -1.40290000      -0.52720000       0.05550000
N       -2.46360000      -0.98490000       0.09490000
H        0.84390000       2.02470000      -0.22280000
H       -0.75600000       1.87420000      -0.96380000
H       -0.61030000       2.02190000       0.79470000
H        0.43460000      -0.33540000      -0.87730000
H        0.27800000      -0.01490000       2.16230000
H        0.65660000      -1.51190000       1.32680000
H        2.68150000      -0.40070000       0.28170000
H        2.34880000       1.05070000       1.21340000
H        2.55480000      -0.27040000       3.34490000
H        2.91100000      -1.71220000       2.41280000
H        6.60780000       0.32510000       2.32420000
