14
Properties=species:S:1:pos:R:3 gdb_57250=T pbc="F F F"
C       -0.59330000       1.61430000       0.10310000
C        0.05380000       0.23260000       0.03190000
O        0.82670000       0.04890000       1.20180000
C       -0.97970000      -0.81950000      -0.10780000
N       -1.77040000      -1.65260000      -0.23800000
C        0.99200000       0.12410000      -1.20480000
O        1.05590000       0.94490000      -2.08070000
C        1.91560000      -1.10490000      -1.27480000
O        1.99530000      -1.93400000      -0.40470000
H        0.19210000       2.36610000       0.20210000
H       -1.16890000       1.81890000      -0.80030000
H       -1.24830000       1.65930000       0.97460000
H        1.20150000      -0.84390000       1.17030000
H        2.50280000      -1.14730000      -2.21310000
