14
Properties=species:S:1:pos:R:3 gdb_123329=T pbc="F F F"
C       -0.21860000      -1.27750000      -0.18390000
C       -0.08650000      -0.08690000      -0.09660000
C        0.06460000       1.34890000       0.01860000
C       -0.23820000       1.98930000       1.45870000
N        1.16490000       2.43180000       1.42230000
N        2.18720000       3.13870000       1.95080000
C        3.09070000       2.96540000       0.97680000
N        2.70590000       2.22500000      -0.11860000
C        1.47270000       1.92440000       0.23730000
H       -0.32590000      -2.33100000      -0.26790000
H       -0.48590000       1.86500000      -0.77400000
H       -0.96430000       2.80470000       1.45700000
H       -0.45880000       1.26520000       2.24390000
H        4.07870000       3.39390000       1.06030000
