18
Properties=species:S:1:pos:R:3 gdb_80506=T pbc="F F F"
C       -0.16350000       1.43640000      -0.29500000
C        0.21050000      -0.03420000      -0.24710000
N        1.43580000      -0.45710000      -1.01660000
C        1.90410000      -1.25250000       0.12830000
C        2.29150000      -0.30360000       1.20920000
N        2.82760000       1.00890000       0.97380000
C        0.80420000      -0.64190000       1.04290000
C        0.03400000      -1.22000000       2.08730000
N       -0.59550000      -1.69400000       2.93720000
H       -0.41890000       1.73070000      -1.31850000
H       -1.04120000       1.61560000       0.33510000
H        0.65080000       2.06710000       0.06470000
H       -0.64590000      -0.65070000      -0.54400000
H        1.19530000      -1.03110000      -1.81590000
H        2.23060000      -2.28210000       0.03490000
H        2.68960000      -0.78400000       2.09800000
H        3.79410000       1.03930000       1.28030000
H        2.82050000       1.18300000      -0.02930000
