18
Properties=species:S:1:pos:R:3 gdb_71208=T pbc="F F F"
C       -0.06160000       1.53510000       0.08590000
C        0.05250000       0.03470000       0.05140000
C        0.88760000      -0.78790000      -0.96740000
N        0.84360000      -1.92840000       0.02120000
C       -0.63970000      -2.14410000       0.37290000
C       -0.29940000      -1.77970000       1.84330000
C        0.74210000      -0.89920000       1.13990000
C       -1.22520000      -0.80160000      -0.07190000
O       -2.33320000      -0.48570000      -0.40650000
H        0.92220000       2.01470000       0.10510000
H       -0.60250000       1.89520000      -0.79510000
H       -0.61980000       1.86690000       0.96780000
H        0.46620000      -0.98470000      -1.95920000
H        1.92370000      -0.45080000      -1.06570000
H       -1.12120000      -3.07100000       0.07010000
H       -1.08070000      -1.32400000       2.45580000
H        0.17780000      -2.60740000       2.37170000
H        1.66300000      -0.54440000       1.60590000
