20
Properties=species:S:1:pos:R:3 gdb_98177=T pbc="F F F"
C       -0.08700000       1.54750000      -0.22270000
N       -0.20460000       0.11610000      -0.43120000
C       -0.97300000      -0.67430000       0.36420000
O       -1.62250000      -0.24370000       1.30470000
C       -1.02680000      -2.18000000       0.01290000
C       -0.12710000      -2.63790000      -1.13760000
C       -0.71120000      -2.96360000       1.31220000
C       -2.49800000      -2.46590000      -0.31830000
O       -2.86540000      -3.08180000      -1.28450000
H        0.94810000       1.83340000      -0.00560000
H       -0.42730000       2.10380000      -1.10280000
H       -0.71580000       1.80600000       0.62940000
H        0.30490000      -0.30310000      -1.18920000
H        0.92870000      -2.46260000      -0.90760000
H       -0.26190000      -3.70830000      -1.30860000
H       -0.38210000      -2.14190000      -2.07910000
H       -1.34180000      -2.61400000       2.13110000
H       -0.87250000      -4.03510000       1.16040000
H        0.33450000      -2.81160000       1.59720000
H       -3.20850000      -2.06350000       0.43210000
