14
Properties=species:S:1:pos:R:3 gdb_33345=T pbc="F F F"
N        0.03960000      -3.76520000      -0.13000000
C        0.03400000      -2.60420000      -0.08330000
C        0.02350000      -1.24080000      -0.03060000
C        0.01220000      -0.03270000       0.01590000
C        0.00260000       1.40970000       0.07100000
C       -0.24190000       2.12050000       1.46720000
C        1.11540000       2.81120000       1.29350000
O        2.09980000       1.77740000       1.18150000
C        1.37470000       2.13520000       0.01390000
H       -0.68280000       1.81190000      -0.68160000
H       -1.09890000       2.79510000       1.42990000
H       -0.31740000       1.46170000       2.33320000
H        1.44440000       3.77490000       1.66140000
H        1.93340000       2.42430000      -0.86800000
