12
Properties=species:S:1:pos:R:3 gdb_42751=T pbc="F F F"
O       -0.07630000      -0.04520000      -0.10880000
C       -0.06120000       1.12690000      -0.07950000
C       -1.01060000       2.39560000       0.09650000
O        0.04630000       2.91100000       0.94940000
C        0.99640000       2.37880000      -0.00910000
C        0.60140000       3.04900000      -1.30660000
C       -0.74180000       3.06310000      -1.23030000
C        2.36630000       2.28790000       0.41940000
N        3.47150000       2.17500000       0.73680000
H       -1.99590000       2.36920000       0.55140000
H        1.27260000       3.34160000      -2.09910000
H       -1.47480000       3.37080000      -1.96010000
