20
Properties=species:S:1:pos:R:3 gdb_71726=T pbc="F F F"
C       -0.13090000       1.46460000       0.09550000
C       -0.02870000      -0.03490000      -0.01150000
C       -0.33830000      -0.76130000      -1.30950000
C       -0.07830000      -2.17460000      -0.84920000
C       -0.41310000      -2.33660000       0.58840000
C       -0.40650000      -0.92340000       1.17910000
C        1.03290000      -0.81480000       0.73240000
C        2.28570000      -0.31350000       1.37280000
N        1.02240000      -2.22780000       0.16320000
H        0.55460000       1.96160000      -0.60040000
H       -1.14590000       1.80710000      -0.13510000
H        0.11050000       1.81360000       1.10420000
H       -1.37360000      -0.61910000      -1.64100000
H        0.33140000      -0.45650000      -2.12220000
H       -0.10550000      -3.01800000      -1.53040000
H       -0.80230000      -3.23620000       1.05120000
H       -0.90160000      -0.56960000       2.07330000
H        2.14130000       0.68390000       1.79850000
H        2.61090000      -0.98350000       2.17530000
H        3.09700000      -0.25630000       0.63750000
