19
Properties=species:S:1:pos:R:3 gdb_53682=T pbc="F F F"
C        0.06440000       1.41870000       0.06740000
C       -0.06440000      -0.02990000       0.14300000
C       -0.16330000      -1.22760000       0.22110000
C       -0.31510000      -2.67610000       0.27990000
C       -1.38820000      -3.18900000      -0.70440000
N       -1.50120000      -4.64070000      -0.68510000
C       -2.25630000      -5.25540000       0.28760000
N       -2.44720000      -6.61920000       0.08490000
O       -2.73790000      -4.65510000       1.23120000
H        1.05650000       1.74780000       0.39610000
H       -0.07960000       1.78040000      -0.95700000
H       -0.67600000       1.91930000       0.70120000
H        0.63890000      -3.17010000       0.05570000
H       -0.60770000      -2.99110000       1.28740000
H       -2.35060000      -2.73810000      -0.44480000
H       -1.13090000      -2.88300000      -1.72160000
H       -1.36860000      -5.12760000      -1.55590000
H       -1.70880000      -7.12860000      -0.37780000
H       -2.79890000      -7.07940000       0.91110000
