17
Properties=species:S:1:pos:R:3 gdb_79644=T pbc="F F F"
O        0.28690000       1.34490000       0.14570000
C        0.02620000      -0.00130000      -0.00720000
C       -1.34670000      -0.65280000       0.04510000
C       -2.55890000       0.18960000      -0.27220000
O       -2.28280000       1.56740000      -0.63580000
C       -2.52720000       0.61390000      -1.67830000
C       -1.25480000       0.06540000      -2.33610000
O       -0.42120000       1.06340000      -2.90320000
C       -0.50460000      -0.69640000      -1.23970000
H       -0.45260000       1.82580000      -0.25280000
H        0.79940000      -0.57480000       0.49770000
H       -1.50890000      -1.52600000       0.66710000
H       -3.47980000       0.05460000       0.28680000
H       -3.41250000       0.81550000      -2.27840000
H       -1.56920000      -0.65980000      -3.10460000
H       -0.90460000       1.49500000      -3.61570000
H       -0.00100000      -1.60570000      -1.54940000
