18
Properties=species:S:1:pos:R:3 gdb_69896=T pbc="F F F"
C       -0.07410000       1.55730000       0.19910000
C        0.04450000       0.07250000       0.06230000
N       -0.79330000      -0.87910000       0.83170000
C        0.69240000      -0.93940000       0.92280000
C        1.23520000      -1.71430000      -0.30110000
C        0.17900000      -2.14320000      -1.24300000
C        0.53560000      -0.66180000      -1.22910000
C        1.17990000      -0.03820000      -2.38430000
O        1.72530000      -0.64480000      -3.28300000
H        0.82820000       2.06420000      -0.16000000
H       -0.92420000       1.94460000      -0.37490000
H       -0.21810000       1.83670000       1.24820000
H       -1.11920000      -0.38640000       1.66310000
H        1.20430000      -0.82530000       1.86940000
H        2.27310000      -2.00080000      -0.40770000
H        0.53680000      -2.63540000      -2.14080000
H       -0.79460000      -2.43600000      -0.87360000
H        1.15120000       1.07500000      -2.39250000
