18
Properties=species:S:1:pos:R:3 gdb_69703=T pbc="F F F"
C       -0.00870000       1.52120000       0.02440000
C        0.04010000       0.02450000       0.05680000
C       -0.86320000      -0.83170000       0.90540000
C        0.63220000      -0.96650000       1.06290000
C        1.23900000      -1.70870000      -0.13450000
N        0.66680000      -0.69490000      -1.09370000
C       -0.15830000      -1.73070000      -1.79400000
C        0.41830000      -2.81230000      -0.84830000
O        0.30660000      -3.99570000      -0.74410000
H        0.96450000       1.93510000      -0.25570000
H       -0.74460000       1.86730000      -0.71160000
H       -0.29640000       1.92560000       0.99980000
H       -1.34560000      -0.28940000       1.71270000
H       -1.46940000      -1.64110000       0.50990000
H        1.14250000      -0.78970000       2.00100000
H        2.32520000      -1.83420000      -0.12430000
H       -1.24390000      -1.59350000      -1.75390000
H        0.14190000      -1.86130000      -2.83910000
