17
Properties=species:S:1:pos:R:3 gdb_18504=T pbc="F F F"
O       -0.48620000       0.48380000       0.67510000
C        0.03090000       1.05680000      -0.24760000
C        1.36810000       1.77780000      -0.17690000
N        1.37000000       2.94310000      -1.03750000
C        0.76790000       4.22190000      -0.54900000
C        2.05940000       4.96000000      -0.90780000
C        3.21180000       4.35410000      -0.14620000
C        2.63390000       3.61820000      -1.32780000
H       -0.43650000       1.09660000      -1.25760000
H        1.61080000       1.96620000       0.88170000
H        2.12020000       1.07380000      -0.56350000
H       -0.10690000       4.50960000      -1.14010000
H        0.49790000       4.22800000       0.51590000
H        2.12020000       5.91290000      -1.41480000
H        4.17690000       4.81780000      -0.32490000
H        3.07090000       3.98880000       0.86790000
H        3.21890000       3.34060000      -2.19840000
