23
Properties=species:S:1:pos:R:3 gdb_95556=T pbc="F F F"
C       -0.45820000       1.40720000       0.03140000
C        0.03000000      -0.04960000       0.04000000
C        0.81190000      -0.36990000      -1.26300000
C        0.62970000      -1.80830000      -1.75300000
C        0.90340000      -2.90760000      -0.76830000
C        1.21970000      -2.83150000       0.53430000
C        1.34260000      -1.67760000       1.41820000
C        0.84500000      -0.43600000       1.26980000
C        1.09630000       0.59670000       2.33840000
H        0.37550000       2.11420000      -0.04110000
H       -1.10570000       1.57610000      -0.83470000
H       -1.03400000       1.65830000       0.92650000
H       -0.86420000      -0.69120000       0.03920000
H        0.47980000       0.30390000      -2.06180000
H        1.87500000      -0.15970000      -1.10290000
H       -0.39400000      -1.93660000      -2.13760000
H        1.27360000      -1.96590000      -2.63110000
H        0.85460000      -3.90640000      -1.19980000
H        1.42870000      -3.77960000       1.02810000
H        1.88570000      -1.88270000       2.33910000
H        1.71290000       0.18510000       3.14120000
H        1.60990000       1.48080000       1.94010000
H        0.16280000       0.96120000       2.78510000
