17
Properties=species:S:1:pos:R:3 gdb_30564=T pbc="F F F"
C       -0.22760000       1.60250000      -0.03720000
N        0.01220000       0.17590000      -0.03600000
C       -0.99470000      -0.58460000       0.10890000
N       -0.91860000      -1.95300000       0.12960000
C        0.23660000      -2.72070000      -0.00040000
C        1.52980000      -2.31690000      -0.17380000
O        2.34320000      -3.41380000      -0.25310000
C        1.56140000      -4.50930000      -0.12960000
C        0.26000000      -4.15770000       0.02820000
H        0.34560000       2.08020000       0.76680000
H        0.12340000       2.04130000      -0.97930000
H       -1.28880000       1.87540000       0.09170000
H       -2.02530000      -0.22160000       0.23170000
H       -1.78170000      -2.45350000       0.25030000
H        1.98840000      -1.35130000      -0.25320000
H        2.06670000      -5.45990000      -0.17300000
H       -0.58100000      -4.82340000       0.14970000
