23
Properties=species:S:1:pos:R:3 gdb_121965=T pbc="F F F"
C       -0.04610000       1.50210000      -0.00700000
C       -0.01430000      -0.01680000       0.01020000
O       -1.34330000      -0.49580000       0.00920000
C       -1.43450000      -1.90190000       0.02650000
C       -2.90870000      -2.30480000      -0.02240000
C       -3.58550000      -1.80210000      -1.30100000
C       -3.02450000      -3.84030000       0.13120000
C       -4.39870000      -4.31190000       0.25030000
C       -5.53690000      -4.68390000       0.35610000
H        0.97110000       1.90510000      -0.00530000
H       -0.56220000       1.86500000      -0.90040000
H       -0.57320000       1.88450000       0.87170000
H        0.52950000      -0.40320000      -0.86870000
H        0.52090000      -0.38240000       0.90340000
H       -0.89500000      -2.33360000      -0.83670000
H       -0.95760000      -2.30430000       0.93780000
H       -3.40070000      -1.84230000       0.84200000
H       -4.64850000      -2.05650000      -1.30610000
H       -3.47970000      -0.71860000      -1.38460000
H       -3.12540000      -2.25660000      -2.18740000
H       -2.54740000      -4.32670000      -0.73120000
H       -2.45850000      -4.16320000       1.01510000
H       -6.53880000      -5.02260000       0.44870000
