17
Properties=species:S:1:pos:R:3 gdb_81847=T pbc="F F F"
O        0.46170000       1.25000000       0.10240000
C        0.12580000      -0.09790000      -0.02660000
C       -1.34140000      -0.54130000       0.03500000
C       -2.10410000      -0.07900000      -1.18960000
C       -1.19470000      -1.25060000      -1.31770000
O       -1.67330000      -2.45510000      -1.78040000
C        0.29220000      -0.79810000      -1.43870000
C        0.59300000       0.05640000      -2.62910000
O        0.35160000       1.24590000      -2.68100000
H        0.25570000       1.68180000      -0.73980000
H        0.71760000      -0.64250000       0.71560000
H       -1.85950000      -0.86210000       0.93070000
H       -3.15320000      -0.35490000      -1.18330000
H       -1.88770000       0.87060000      -1.66900000
H       -1.20160000      -3.16780000      -1.33400000
H        0.97130000      -1.65590000      -1.40770000
H        1.02410000      -0.45950000      -3.51340000
