15
Properties=species:S:1:pos:R:3 gdb_29492=T pbc="F F F"
N        0.04150000       1.48120000       0.13800000
C        0.04760000       0.06950000       0.02100000
C       -1.03730000      -0.79170000      -0.02000000
N       -0.60660000      -2.11660000      -0.05030000
C        0.76070000      -2.10100000      -0.03920000
C        1.18620000      -0.78260000       0.00940000
N        2.56620000      -0.88060000       0.02590000
C        2.85630000      -2.22720000      -0.00160000
N        1.78630000      -3.00060000      -0.04530000
H        0.47720000       1.92610000      -0.66470000
H       -0.90620000       1.83520000       0.20020000
H       -2.08990000      -0.55650000      -0.02440000
H       -1.19890000      -2.92650000      -0.03870000
H        3.23530000      -0.13660000       0.11500000
H        3.87610000      -2.58200000       0.00740000
