12
Properties=species:S:1:pos:R:3 gdb_25389=T pbc="F F F"
N       -0.20910000       1.27750000       0.00920000
C        0.00300000       0.03800000       0.00100000
O       -1.15730000      -0.77120000       0.00240000
C       -1.01380000      -2.09750000      -0.00590000
C       -2.36020000      -2.79360000      -0.00300000
O       -2.47380000      -3.98580000      -0.00920000
N        0.09710000      -2.73890000      -0.01530000
C        1.21380000      -1.91350000      -0.01640000
N        1.22360000      -0.62570000      -0.00910000
H        0.68690000       1.76280000       0.00730000
H       -3.21530000      -2.09010000       0.00540000
H        2.16930000      -2.43260000      -0.02430000
