13
Properties=species:S:1:pos:R:3 gdb_129582=T pbc="F F F"
N        0.11950000       1.27830000      -0.69690000
C       -0.00500000       0.01980000      -0.19400000
N        1.17400000      -0.66210000      -0.01750000
N       -1.10260000      -0.60130000       0.13550000
C       -2.31030000       0.00420000       0.12760000
N       -3.41970000      -0.60530000       0.49590000
O       -4.39210000       0.33090000       0.34170000
N       -3.84140000       1.50360000      -0.12450000
N       -2.60430000       1.32230000      -0.25690000
H        1.00900000       1.74200000      -0.61310000
H       -0.71070000       1.85590000      -0.69920000
H        1.92810000      -0.46050000      -0.65590000
H        1.03930000      -1.64100000       0.18480000
