19
Properties=species:S:1:pos:R:3 gdb_74963=T pbc="F F F"
C       -0.01250000       1.50580000      -0.00110000
C       -0.08870000       0.01870000      -0.04750000
C       -0.07610000      -0.82760000      -1.08110000
C        0.01560000      -2.21200000      -0.46290000
C        1.44760000      -2.31490000       0.15540000
O        1.36700000      -1.37110000       1.22480000
C       -0.01670000      -0.90140000       1.18620000
C       -0.43430000      -0.40830000       2.54210000
O       -0.72430000      -2.04670000       0.75970000
H        0.90490000       1.83090000       0.50600000
H       -0.01390000       1.93680000      -1.00580000
H       -0.85150000       1.93860000       0.55700000
H        0.01230000      -0.60190000      -2.13550000
H       -0.33450000      -3.07150000      -1.03090000
H        1.63460000      -3.31670000       0.55740000
H        2.24160000      -2.04120000      -0.54730000
H        0.20560000       0.42090000       2.85340000
H       -1.47180000      -0.06560000       2.51790000
H       -0.33980000      -1.21630000       3.27040000
