17
Properties=species:S:1:pos:R:3 gdb_60894=T pbc="F F F"
O       -0.02690000       1.47690000       0.10130000
C        0.04160000       0.07890000       0.10770000
C        0.73110000      -0.43280000      -1.14640000
O        1.12660000       0.33310000      -1.99220000
C        0.77810000      -0.40710000       1.33990000
C        2.26510000      -0.22680000       1.74280000
C        1.59340000      -1.25390000       2.68280000
C        0.36870000      -0.31960000       2.83020000
O        0.94130000      -1.87620000       1.49960000
H        0.39910000       1.74880000      -0.72860000
H       -0.96780000      -0.36990000       0.12590000
H        0.85040000      -1.52780000      -1.23310000
H        2.99260000      -0.64330000       1.04480000
H        2.56760000       0.73580000       2.15910000
H        2.04530000      -1.92500000       3.41190000
H        0.50270000       0.63470000       3.34290000
H       -0.56790000      -0.81930000       3.08000000
