15
Properties=species:S:1:pos:R:3 gdb_129432=T pbc="F F F"
N        0.66720000       0.25610000      -0.95100000
C       -0.16290000       0.23190000       0.13250000
O       -0.02240000       0.97020000       1.09510000
C       -1.24890000      -0.77000000       0.09680000
C       -1.65560000      -1.76950000      -0.77610000
C       -2.79280000      -2.33670000      -0.15680000
N       -3.62430000      -3.33880000      -0.65310000
N       -3.06630000      -1.73990000       1.00770000
N       -2.12040000      -0.79280000       1.12810000
H        1.33670000       1.00730000      -0.99580000
H        0.41840000      -0.20700000      -1.80790000
H       -1.20840000      -2.05550000      -1.71460000
H       -3.12360000      -4.09040000      -1.10710000
H       -4.23550000      -3.70310000       0.06660000
H       -2.07990000      -0.18300000       1.92890000
