14
Properties=species:S:1:pos:R:3 gdb_25260=T pbc="F F F"
O       -0.00810000      -0.03310000       0.00430000
C        0.04870000       1.16590000       0.00950000
O       -1.08030000       1.96710000       0.02880000
C       -0.74430000       3.37470000       0.03110000
C        0.75160000       3.39580000       0.01070000
C        1.16910000       2.09230000      -0.00130000
N        2.53330000       2.05800000      -0.02020000
C        2.98420000       3.35380000      -0.02000000
C        1.89990000       4.21980000      -0.00090000
H       -1.20860000       3.83540000      -0.84800000
H       -1.18420000       3.82660000       0.92700000
H        3.10550000       1.23070000      -0.03210000
H        4.04180000       3.56740000      -0.03350000
H        1.96050000       5.29690000       0.00350000
