17
Properties=species:S:1:pos:R:3 gdb_78343=T pbc="F F F"
O       -0.00990000       1.27240000      -0.09440000
C       -0.06580000      -0.11680000      -0.02360000
C       -0.50900000      -0.68840000       1.33890000
C       -1.42960000      -0.67860000       0.08010000
C       -1.35080000      -2.19690000       0.02690000
C       -2.45080000      -3.19140000      -0.23290000
C       -1.25600000      -3.14190000      -1.14350000
C       -0.51070000      -2.18960000       1.29240000
O       -0.11970000      -3.05870000       2.02370000
H        0.82720000       1.56100000       0.28470000
H        0.69370000      -0.64280000      -0.60360000
H       -0.51140000      -0.04190000       2.20700000
H       -2.31560000      -0.07520000      -0.06490000
H       -2.53090000      -4.01590000       0.46770000
H       -3.39600000      -2.80890000      -0.60310000
H       -1.38580000      -2.72370000      -2.13610000
H       -0.52560000      -3.94110000      -1.07340000
