25
Properties=species:S:1:pos:R:3 gdb_121530=T pbc="F F F"
C       -0.60180000       1.45070000       0.10780000
C        0.06370000       0.08410000      -0.07480000
C        0.67250000      -0.46250000       1.21980000
C        1.34110000      -1.83900000       1.03000000
C        1.92560000      -2.37080000       2.25700000
C        2.39700000      -2.77980000       3.28830000
C        2.97990000      -3.30470000       4.52420000
C        2.30190000      -4.62460000       4.94260000
C        4.50590000      -3.47880000       4.38980000
H        0.11830000       2.19730000       0.46040000
H       -1.02780000       1.81660000      -0.83160000
H       -1.41180000       1.40100000       0.84400000
H       -0.67230000      -0.63390000      -0.46110000
H        0.84660000       0.15660000      -0.84170000
H        1.41600000       0.24340000       1.60960000
H       -0.10330000      -0.54710000       1.99040000
H        0.60030000      -2.54880000       0.63690000
H        2.11730000      -1.75950000       0.25640000
H        2.79800000      -2.57010000       5.32170000
H        2.46340000      -5.39700000       4.18410000
H        2.71650000      -4.98250000       5.89080000
H        1.22380000      -4.49120000       5.06460000
H        4.98690000      -2.53480000       4.12080000
H        4.93440000      -3.82950000       5.33450000
H        4.74210000      -4.21220000       3.61250000
