21
Properties=species:S:1:pos:R:3 gdb_91543=T pbc="F F F"
C       -0.15620000       1.44900000      -0.33040000
C        0.11920000      -0.01970000      -0.08540000
O        1.30390000      -0.52310000      -0.77550000
C        1.78130000      -1.09530000       0.44150000
C        2.07290000      -0.02880000       1.45100000
C        0.64810000      -0.52480000       1.26910000
C       -0.22970000      -1.08470000       2.32820000
C        0.22890000      -1.30280000       3.74920000
C       -0.75410000      -0.20410000       3.44590000
H        0.67160000       2.07760000       0.00830000
H       -0.30850000       1.63240000      -1.39890000
H       -1.06560000       1.75220000       0.19960000
H       -0.74620000      -0.62270000      -0.39440000
H        2.24400000      -2.07480000       0.40170000
H        2.55790000      -0.37290000       2.35880000
H        2.38170000       0.95680000       1.11410000
H       -0.93780000      -1.82290000       1.95740000
H       -0.12830000      -2.18970000       4.26060000
H        1.23820000      -1.01430000       4.01900000
H       -0.38940000       0.81640000       3.48690000
H       -1.78540000      -0.32620000       3.75740000
