18
Properties=species:S:1:pos:R:3 gdb_85123=T pbc="F F F"
C       -0.40980000       1.26430000      -0.13100000
C        0.20510000      -0.11350000      -0.05900000
O        1.50550000      -0.17320000      -0.76430000
C        2.15920000      -0.57450000       0.36940000
N        3.36530000      -0.83160000       0.59640000
C        0.90540000      -0.59470000       1.23910000
C        0.95180000       0.30260000       2.47660000
C        0.55020000      -2.01930000       1.64220000
O       -0.34020000      -2.66870000       1.16020000
H        0.26940000       2.03350000       0.24540000
H       -0.65910000       1.50650000      -1.16820000
H       -1.33420000       1.29460000       0.45480000
H       -0.45930000      -0.87610000      -0.47030000
H        3.94140000      -0.70900000      -0.23820000
H        1.31160000       1.30340000       2.22880000
H       -0.03670000       0.39100000       2.93850000
H        1.64070000      -0.12000000       3.21400000
H        1.20220000      -2.42860000       2.44350000
