17
Properties=species:S:1:pos:R:3 gdb_104553=T pbc="F F F"
C       -0.10370000       1.53580000      -0.03670000
O       -0.20420000       0.12280000      -0.05760000
C        0.59260000      -0.51800000      -1.02870000
C        2.14100000      -0.54010000      -0.71360000
C        2.05840000      -2.07300000      -0.68090000
O        2.87870000      -2.94050000      -0.62330000
C        0.53110000      -2.06600000      -0.81310000
C        0.28120000      -0.09680000      -2.39260000
C        0.03060000       0.24590000      -3.51750000
H        0.92510000       1.86770000       0.16610000
H       -0.43530000       1.97880000      -0.98390000
H       -0.75190000       1.88040000       0.77140000
H        2.81810000      -0.11150000      -1.45460000
H        2.35720000      -0.11630000       0.27220000
H        0.02200000      -2.30280000       0.12600000
H        0.11040000      -2.66580000      -1.62160000
H       -0.19420000       0.54460000      -4.51190000
