13
Properties=species:S:1:pos:R:3 gdb_127774=T pbc="F F F"
C       -0.01110000       1.45220000      -0.01870000
N       -0.00570000       0.00990000       0.08490000
N       -0.04460000      -0.77690000      -1.06710000
N       -0.03160000      -2.03800000      -0.74030000
C        0.01600000      -2.10010000       0.61420000
C        0.03180000      -0.83170000       1.12120000
O        0.07870000      -0.85550000       2.46550000
C        0.08950000      -2.24290000       2.70510000
N        0.05410000      -3.00640000       1.66810000
H        0.89790000       1.87510000       0.41810000
H       -0.05200000       1.69210000      -1.08130000
H       -0.88510000       1.87300000       0.48620000
H        0.12640000      -2.51570000       3.74750000
