19
Properties=species:S:1:pos:R:3 gdb_51864=T pbc="F F F"
O       -0.05760000      -0.06070000       0.04180000
C       -0.00690000       1.13700000      -0.08260000
C        1.28230000       1.93300000      -0.10170000
C        1.34160000       2.94200000      -1.26060000
O        0.25640000       3.83760000      -1.07000000
C        0.33140000       4.99340000      -1.89140000
C        1.54080000       5.85110000      -1.51600000
C        2.76290000       4.97900000      -1.40010000
C        2.66980000       3.65440000      -1.31320000
H       -0.92790000       1.74730000      -0.18970000
H        1.34720000       2.50160000       0.83570000
H        2.12260000       1.23490000      -0.14510000
H        1.19660000       2.39020000      -2.20960000
H        0.39560000       4.70130000      -2.95190000
H       -0.60880000       5.53170000      -1.74520000
H        1.69490000       6.62790000      -2.27560000
H        1.35580000       6.37810000      -0.57010000
H        3.73690000       5.46100000      -1.40420000
H        3.55590000       3.02650000      -1.27230000
