19
Properties=species:S:1:pos:R:3 gdb_112271=T pbc="F F F"
C        0.34530000       1.54670000       0.11590000
C        0.03520000       0.05080000       0.00920000
C        0.41360000      -0.52220000      -1.34070000
O        1.87250000      -0.46610000      -1.58170000
C        1.98490000      -1.83020000      -1.60960000
O        2.97580000      -2.48390000      -1.69010000
C        0.46170000      -2.05950000      -1.48470000
O        0.00320000      -2.77460000      -0.38120000
C        0.18130000      -4.17800000      -0.51130000
H        1.41150000       1.73310000      -0.04020000
H       -0.20960000       2.12360000      -0.63220000
H        0.07340000       1.93030000       1.10320000
H        0.55760000      -0.50990000       0.79020000
H       -1.03530000      -0.13430000       0.15940000
H       -0.09520000      -0.00660000      -2.16040000
H        0.02650000      -2.43380000      -2.42410000
H       -0.21870000      -4.63090000       0.39780000
H       -0.36940000      -4.56720000      -1.38090000
H        1.24060000      -4.43980000      -0.61670000
