15
Properties=species:S:1:pos:R:3 gdb_27002=T pbc="F F F"
N        0.13120000       1.43370000       0.37530000
C        0.04030000       0.05610000       0.13180000
C       -1.09890000      -0.69170000      -0.05910000
C       -2.54230000      -0.30500000      -0.04980000
C       -3.20370000      -0.43680000      -1.35640000
N       -3.70940000      -0.56900000      -2.38710000
N       -0.64320000      -1.99460000      -0.20870000
C        0.70690000      -1.96630000      -0.08500000
N        1.15450000      -0.74610000       0.12240000
H        1.10290000       1.68990000       0.50390000
H       -0.25720000       1.99540000      -0.37300000
H       -3.11620000      -0.89570000       0.67750000
H       -2.61470000       0.73700000       0.27950000
H       -1.20810000      -2.80040000      -0.42020000
H        1.31330000      -2.85650000      -0.15680000
