19
Properties=species:S:1:pos:R:3 gdb_87172=T pbc="F F F"
O        0.12880000       1.22860000       0.05530000
C       -0.01450000      -0.15710000       0.22860000
C       -0.86980000      -0.68200000       1.36500000
C       -1.40080000      -0.66640000      -0.05790000
O       -2.35420000       0.30870000      -0.36830000
C       -1.65960000      -1.93340000      -0.83220000
C       -0.78980000      -3.17330000      -0.52940000
O       -1.88480000      -3.84590000       0.11840000
C       -2.81100000      -2.81180000      -0.28490000
H        0.53650000       1.59780000       0.84520000
H        0.84860000      -0.74170000      -0.08550000
H       -0.58940000      -1.61960000       1.83330000
H       -1.30880000       0.05360000       2.03100000
H       -1.87760000       1.15120000      -0.38980000
H       -1.74390000      -1.67850000      -1.89080000
H       -0.44850000      -3.71000000      -1.42450000
H        0.06750000      -3.03980000       0.14190000
H       -3.36480000      -2.39970000       0.56520000
H       -3.52000000      -3.17150000      -1.04110000
