27
Properties=species:S:1:pos:R:3 gdb_60340=T pbc="F F F"
C       -0.16480000       1.54160000       0.21700000
C       -0.02080000       0.03990000      -0.00670000
C        0.90580000      -0.60810000       1.02720000
O       -1.33500000      -0.50280000       0.04370000
C       -1.48960000      -1.78620000      -0.52570000
C       -2.98020000      -2.16420000      -0.54910000
C       -3.76050000      -1.14270000      -1.39500000
C       -3.10600000      -3.56350000      -1.17480000
C       -3.52880000      -2.18400000       0.88890000
H        0.80890000       2.03750000       0.16200000
H       -0.82390000       1.97880000      -0.53760000
H       -0.59730000       1.73720000       1.20350000
H        0.39460000      -0.13420000      -1.01440000
H        1.90440000      -0.16210000       0.97800000
H        0.50900000      -0.45740000       2.03650000
H        1.01490000      -1.68320000       0.85860000
H       -1.08710000      -1.79240000      -1.55390000
H       -0.93140000      -2.54430000       0.04750000
H       -3.40310000      -1.13640000      -2.43120000
H       -4.82820000      -1.38640000      -1.41220000
H       -3.64210000      -0.13440000      -0.99150000
H       -2.55380000      -4.31280000      -0.59640000
H       -4.15460000      -3.87740000      -1.20860000
H       -2.72150000      -3.57920000      -2.20100000
H       -3.40250000      -1.20920000       1.36590000
H       -4.59440000      -2.43760000       0.89500000
H       -3.00550000      -2.92860000       1.49990000
