23
Properties=species:S:1:pos:R:3 gdb_88993=T pbc="F F F"
C        0.12980000       1.55670000      -0.20980000
C        0.09700000       0.05490000      -0.02340000
C        1.36970000      -0.75790000      -0.00220000
C        0.53420000      -0.62760000       1.25390000
C        1.03550000       0.12360000       2.47240000
C        1.82560000      -0.76400000       3.42940000
C        3.27510000      -1.15560000       3.05760000
O        3.78520000      -0.62360000       4.29780000
C        2.49070000      -0.09950000       4.65590000
H        1.01450000       2.00820000       0.24810000
H        0.14900000       1.81290000      -1.27490000
H       -0.75260000       2.03550000       0.22990000
H       -0.74560000      -0.42220000      -0.51840000
H        1.39990000      -1.71040000      -0.52020000
H        2.30520000      -0.20720000      -0.03820000
H       -0.04630000      -1.51130000       1.51270000
H        1.66350000       0.97080000       2.17090000
H        0.18180000       0.55360000       3.01570000
H        1.22600000      -1.63530000       3.71030000
H        3.48980000      -2.22510000       2.94990000
H        3.68270000      -0.62350000       2.18720000
H        2.47490000       1.00010000       4.64200000
H        2.16570000      -0.44430000       5.64500000
