16
Properties=species:S:1:pos:R:3 gdb_20357=T pbc="F F F"
C       -0.12360000       1.45810000      -0.16600000
C        1.28280000       0.98070000       0.06560000
C        0.14440000      -0.01980000       0.03850000
C       -0.29280000      -0.71130000       1.26880000
C       -0.75010000      -2.01090000       1.37750000
N       -1.03680000      -2.21730000       2.68780000
N       -0.79980000      -1.14050000       3.45570000
C       -0.34880000      -0.22670000       2.60090000
H       -0.62430000       1.98700000       0.63780000
H       -0.39960000       1.79300000      -1.15990000
H        1.97570000       0.98670000      -0.76870000
H        1.74130000       1.18390000       1.02740000
H        0.08330000      -0.63320000      -0.85520000
H       -0.88810000      -2.78180000       0.63550000
H       -1.39120000      -3.05450000       3.11720000
H       -0.07820000       0.75290000       2.96840000
