21
Properties=species:S:1:pos:R:3 gdb_92024=T pbc="F F F"
C        0.04010000       1.50410000      -0.03770000
C        0.03960000      -0.01740000       0.02080000
O        0.73620000      -0.47110000      -1.14710000
C        0.70570000      -1.85830000      -1.31860000
C        2.03060000      -2.56730000      -1.32700000
C        1.11470000      -2.68490000      -0.12660000
C        1.31840000      -1.94220000       1.16910000
C        2.19460000      -0.71690000       1.29860000
C        0.69500000      -0.56620000       1.27950000
H        1.06470000       1.88530000      -0.00240000
H       -0.42680000       1.84950000      -0.96410000
H       -0.51370000       1.91960000       0.80970000
H       -1.00120000      -0.38140000      -0.02140000
H       -0.09200000      -2.20780000      -1.97320000
H        2.14260000      -3.43610000      -1.96640000
H        2.91660000      -1.94920000      -1.23950000
H        0.61090000      -3.63920000      -0.00740000
H        1.26670000      -2.57170000       2.05140000
H        2.71680000      -0.57470000       2.23820000
H        2.73660000      -0.37410000       0.42520000
H        0.18960000      -0.30400000       2.20430000
