15
Properties=species:S:1:pos:R:3 gdb_101991=T pbc="F F F"
C       -0.00130000       1.52090000      -0.04190000
N        0.01870000       0.06580000       0.12010000
C       -1.29220000      -0.54580000       0.03870000
C       -1.86140000      -0.67110000      -1.40340000
O       -1.21870000      -0.37660000      -2.37180000
C       -1.31220000      -1.88630000       0.62470000
C       -1.33970000      -3.01630000       1.05110000
C       -1.36610000      -4.28680000       1.55070000
N       -1.39220000      -5.36810000       1.97420000
H        1.02700000       1.88870000      -0.00350000
H       -0.45740000       1.86770000      -0.98040000
H       -0.54400000       1.97010000       0.79710000
H        0.61000000      -0.34820000      -0.59400000
H       -2.00720000       0.07520000       0.60080000
H       -2.89700000      -1.06710000      -1.46990000
