19
Properties=species:S:1:pos:R:3 gdb_91168=T pbc="F F F"
C       -0.15440000       1.50110000      -0.08620000
C        0.02900000      -0.00270000       0.03720000
O        0.78520000      -0.52140000      -1.08460000
C        1.92340000      -1.24690000      -0.51440000
C        2.83600000      -0.27700000       0.19320000
C        2.17020000       0.14180000       1.27950000
C        0.82120000      -0.53270000       1.27410000
C        1.23530000      -1.93150000       0.68290000
O        0.19830000      -2.80710000       0.34220000
H        0.80660000       2.02030000      -0.07490000
H       -0.65950000       1.73920000      -1.02680000
H       -0.77170000       1.87920000       0.73620000
H       -0.95710000      -0.48790000       0.03430000
H        2.33890000      -1.87570000      -1.30030000
H        3.80730000       0.04390000      -0.15950000
H        2.49560000       0.87680000       2.00500000
H        0.25100000      -0.53550000       2.20230000
H        1.92270000      -2.46070000       1.34440000
H       -0.17980000      -2.48280000      -0.48520000
