16
Properties=species:S:1:pos:R:3 gdb_131508=T pbc="F F F"
O        0.05660000       1.42050000       0.01530000
C        0.02780000       0.00400000      -0.01310000
C       -1.44310000      -0.53470000      -0.06680000
C       -1.66350000      -0.67690000      -1.54360000
C       -2.57260000      -0.80510000      -2.53800000
O       -1.93820000      -0.88480000      -3.72920000
N       -0.55030000      -0.80740000      -3.53070000
C       -0.42210000      -0.68890000      -2.23810000
C        0.73430000      -0.55470000      -1.29110000
H       -0.37970000       1.74510000      -0.78150000
H        0.53850000      -0.30680000       0.90100000
H       -1.52090000      -1.50290000       0.44310000
H       -2.11360000       0.16150000       0.44280000
H       -3.64940000      -0.84990000      -2.58880000
H        1.52680000       0.11830000      -1.62450000
H        1.18510000      -1.53490000      -1.09520000
