17
Properties=species:S:1:pos:R:3 gdb_17035=T pbc="F F F"
C        0.02080000       1.69920000       0.04820000
C       -0.03720000       0.18270000       0.04850000
C        0.96610000      -0.69730000      -0.77270000
C        2.07490000      -0.36960000       0.27580000
C        0.77140000      -0.68920000       1.06690000
N        0.52730000      -1.83500000       0.11210000
C        1.11310000      -3.07460000       0.15120000
O        1.57760000      -3.65650000      -0.80470000
H        1.03030000       2.10330000       0.15120000
H       -0.39890000       2.09030000      -0.88460000
H       -0.58300000       2.10030000       0.86920000
H       -1.06550000      -0.17230000      -0.05700000
H        1.05530000      -0.81950000      -1.85030000
H        2.87620000      -1.10540000       0.35640000
H        2.46120000       0.64970000       0.31320000
H        0.62460000      -0.79890000       2.14210000
H        1.02540000      -3.53600000       1.15710000
