15
Properties=species:S:1:pos:R:3 gdb_27074=T pbc="F F F"
N       -0.48500000       0.65770000      -1.24530000
C       -0.20940000      -0.37330000      -0.34480000
C       -0.95900000      -1.27470000       0.38250000
N       -2.34840000      -1.44090000       0.52510000
C       -3.35800000      -0.90740000      -0.20020000
O       -3.25500000      -0.10790000      -1.11630000
N       -0.15690000      -2.14870000       1.07590000
C        1.07330000      -1.79740000       0.78850000
N        1.09650000      -0.73970000      -0.07040000
H       -1.48040000       0.63670000      -1.46740000
H       -0.25090000       1.57190000      -0.86860000
H       -2.58930000      -2.13140000       1.22170000
H       -4.33890000      -1.28380000       0.14180000
H        1.97010000      -2.25430000       1.17700000
H        1.90190000      -0.32310000      -0.50720000
