19
Properties=species:S:1:pos:R:3 gdb_109596=T pbc="F F F"
C        0.05320000       1.55110000      -0.18560000
C       -0.00870000       0.04480000       0.01590000
C       -1.14900000      -0.60660000      -0.57050000
C       -2.10370000      -1.15070000      -1.06140000
C        1.30040000      -0.74690000       0.02930000
O        2.49390000      -0.04710000      -0.10500000
C        0.52330000      -0.60420000       1.31200000
C        1.13110000       0.21570000       2.43290000
O        2.48590000      -0.17610000       2.71610000
H        1.05540000       1.92780000       0.02460000
H       -0.17680000       1.78810000      -1.22790000
H       -0.67380000       2.07180000       0.44550000
H       -2.94560000      -1.62700000      -1.49890000
H        1.28140000      -1.71130000      -0.47520000
H        2.93060000      -0.07690000       0.76030000
H       -0.03020000      -1.48190000       1.63190000
H        1.19750000       1.27290000       2.17300000
H        0.51630000       0.14030000       3.33880000
H        2.47410000      -1.09930000       2.99070000
