15
Properties=species:S:1:pos:R:3 gdb_131898=T pbc="F F F"
C       -0.00430000       1.51460000      -0.02310000
C       -0.00030000       0.01630000       0.03570000
C       -0.07520000      -0.84800000      -1.05030000
N       -0.04390000      -2.13050000      -0.59740000
C        0.04990000      -2.10360000       0.76480000
C        0.07960000      -0.79250000       1.19520000
N        0.09970000      -3.32180000       1.48960000
O        0.05400000      -4.36610000       0.82920000
O        0.18400000      -3.25990000       2.71190000
H        0.90860000       1.93690000       0.41060000
H       -0.07450000       1.86740000      -1.05570000
H       -0.85010000       1.93700000       0.53020000
H       -0.14780000      -0.63080000      -2.10460000
H       -0.08050000      -2.98960000      -1.12160000
H        0.15050000      -0.47580000       2.22300000
