18
Properties=species:S:1:pos:R:3 gdb_22886=T pbc="F F F"
C       -0.00670000       1.60630000       0.00970000
C        0.02570000       0.06810000       0.03400000
C        0.75460000      -0.55170000      -1.13740000
C        1.77430000      -1.33050000      -0.77470000
C        1.97230000      -1.36940000       0.72130000
O        3.25210000      -0.89180000       1.12830000
C        0.79450000      -0.52300000       1.20920000
N        0.41570000      -0.31460000       2.40510000
O        1.22160000      -0.97530000       3.33850000
H        1.00650000       2.01950000      -0.02840000
H       -0.55410000       1.97030000      -0.86610000
H       -0.49770000       1.98750000       0.90860000
H       -1.01320000      -0.28800000       0.06670000
H        0.44840000      -0.35850000      -2.16030000
H        2.43620000      -1.86680000      -1.44510000
H        1.91600000      -2.37990000       1.14110000
H        3.36330000      -0.01290000       0.74860000
H        0.79940000      -0.74400000       4.17280000
