17
Properties=species:S:1:pos:R:3 gdb_32374=T pbc="F F F"
C        0.07560000       1.52060000      -0.17500000
C        0.01920000       0.00340000       0.06360000
C       -1.37590000      -0.53990000       0.01700000
C       -1.91980000      -1.43940000      -0.87240000
N       -3.22790000      -1.59680000      -0.49210000
C       -3.43430000      -0.79730000       0.60260000
N       -2.32690000      -0.14920000       0.92660000
C       -4.68780000      -0.72610000       1.25150000
C       -5.76780000      -0.68730000       1.78210000
H        1.10100000       1.89260000      -0.08560000
H       -0.29400000       1.77480000      -1.17370000
H       -0.54730000       2.04220000       0.55620000
H        0.63290000      -0.51850000      -0.67920000
H        0.45470000      -0.22080000       1.04500000
H       -1.50300000      -1.96610000      -1.71510000
H       -3.91770000      -2.18800000      -0.92480000
H       -6.71370000      -0.64140000       2.26250000
