20
Properties=species:S:1:pos:R:3 gdb_62850=T pbc="F F F"
C       -0.14640000       1.51330000       0.00260000
C       -0.01230000      -0.01280000       0.00610000
C       -1.40260000      -0.61680000      -0.19830000
C        1.18670000      -0.59980000      -0.83970000
C        2.13650000      -0.18140000       0.31170000
C        0.90290000      -0.60830000       1.17130000
C        0.82060000      -2.09690000       0.80020000
O        0.51710000      -3.05850000       1.46050000
N        1.13170000      -2.05300000      -0.56300000
H        0.79000000       2.04850000       0.16370000
H       -0.55750000       1.85040000      -0.95610000
H       -0.84640000       1.83100000       0.78300000
H       -1.83460000      -0.26770000      -1.14320000
H       -1.40460000      -1.70830000      -0.20790000
H       -2.07600000      -0.29710000       0.60430000
H        1.36320000      -0.35620000      -1.88730000
H        3.04620000      -0.77470000       0.41560000
H        2.36530000       0.88020000       0.36120000
H        0.77300000      -0.36040000       2.22260000
H        0.67090000      -2.69730000      -1.18870000
