18
Properties=species:S:1:pos:R:3 gdb_35723=T pbc="F F F"
N       -0.33590000      -1.06620000      -0.60390000
C       -0.15080000       0.01390000      -0.23700000
C        0.05160000       1.39660000       0.19480000
N        0.43250000       1.58520000       1.61010000
C        1.34150000       2.69340000       1.24130000
C        1.36900000       2.15300000      -0.21420000
C        2.52760000       1.26510000      -0.60520000
C        3.91140000       1.56280000      -0.15480000
N        3.19780000       0.38400000       0.35620000
H       -0.83170000       1.97490000      -0.11300000
H       -0.32930000       1.80730000       2.24180000
H        0.89080000       3.69360000       1.29220000
H        2.27970000       2.70760000       1.80460000
H        1.20960000       2.90410000      -0.99080000
H        2.39910000       0.80600000      -1.58430000
H        4.75180000       1.34410000      -0.80760000
H        4.06490000       2.41610000       0.50160000
H        2.83750000       0.54400000       1.29430000
