18
Properties=species:S:1:pos:R:3 gdb_32578=T pbc="F F F"
C        0.02280000       1.57540000       0.00770000
C       -0.03180000       0.04540000       0.00310000
N       -1.38990000      -0.47630000       0.01300000
C       -2.14960000      -0.75210000       1.13040000
O       -1.56080000      -0.53400000       2.34070000
C       -3.38130000      -1.20330000       0.74860000
C       -3.39290000      -1.20050000      -0.69320000
C       -2.16760000      -0.74750000      -1.09310000
O       -1.59870000      -0.52440000      -2.31190000
H        1.06310000       1.91650000       0.00010000
H       -0.47920000       1.98180000      -0.87460000
H       -0.46420000       1.97580000       0.90110000
H        0.46420000      -0.35090000      -0.88620000
H        0.47940000      -0.35670000       0.88120000
H       -2.16120000      -0.84930000       3.02220000
H       -4.18820000      -1.49810000       1.40120000
H       -4.21030000      -1.49280000      -1.33390000
H       -2.20940000      -0.83860000      -2.98480000
