14
Properties=species:S:1:pos:R:3 gdb_45037=T pbc="F F F"
O       -0.05900000      -0.00860000       0.34020000
C       -0.07560000       1.17990000       0.12960000
C       -1.36130000       1.95140000      -0.13470000
C       -1.26740000       3.44060000       0.07240000
O       -0.67230000       3.86120000       1.29350000
C        0.04960000       4.10010000       0.07470000
C        1.29090000       3.27500000      -0.10210000
O        2.37460000       3.75730000      -0.33290000
N        1.11090000       1.90370000       0.03930000
H       -1.65190000       1.74330000      -1.17250000
H       -2.13740000       1.51490000       0.49990000
H       -2.13040000       4.02730000      -0.23980000
H        0.16850000       5.14170000      -0.20900000
H        1.95890000       1.35020000       0.07550000
