19
Properties=species:S:1:pos:R:3 gdb_31338=T pbc="F F F"
C        0.05590000       1.42400000       0.09230000
N       -0.17220000      -0.00120000      -0.06930000
C        0.54730000      -0.66340000      -1.07740000
C        0.71760000      -2.02370000      -1.25070000
C        0.37480000      -3.49560000      -1.09130000
C        1.14710000      -3.67830000      -2.45360000
N        1.44040000      -2.23580000      -2.39670000
C        1.72800000      -1.06360000      -3.02230000
C        1.22260000      -0.06540000      -2.19580000
H        1.11400000       1.69620000       0.24540000
H       -0.30050000       1.96010000      -0.79380000
H       -0.52200000       1.78250000       0.94830000
H       -0.12030000      -0.49140000       0.81250000
H        0.81990000      -4.02120000      -0.24050000
H       -0.68720000      -3.75270000      -1.14610000
H        2.03590000      -4.31560000      -2.43140000
H        0.51100000      -3.96270000      -3.29680000
H        2.30080000      -0.99820000      -3.93310000
H        1.35270000       0.99330000      -2.36060000
