23
Properties=species:S:1:pos:R:3 gdb_90866=T pbc="F F F"
C       -1.00870000       1.14020000       0.24410000
C        0.01140000       0.02360000       0.01180000
C        0.65520000       0.09880000      -1.38620000
C        1.61440000      -1.07030000      -1.60980000
C        3.09760000      -1.01740000      -1.32470000
C        3.39280000      -0.04070000      -0.18840000
C        2.34830000      -0.79250000       0.71420000
C        1.08600000      -0.00890000       1.11920000
C        2.16510000      -1.82100000      -0.42370000
H       -0.53430000       2.12640000       0.17360000
H       -1.81500000       1.10590000      -0.49680000
H       -1.46400000       1.06360000       1.23770000
H       -0.52180000      -0.93710000       0.04960000
H       -0.13260000       0.07740000      -2.14710000
H        1.16680000       1.06290000      -1.50880000
H        1.37660000      -1.71080000      -2.45460000
H        3.81970000      -1.37800000      -2.04790000
H        4.40750000      -0.14900000       0.20220000
H        3.21050000       1.02260000      -0.38240000
H        2.83570000      -1.21470000       1.59540000
H        1.37910000       1.01760000       1.38020000
H        0.64540000      -0.43660000       2.02790000
H        2.07030000      -2.89380000      -0.30640000
