18
Properties=species:S:1:pos:R:3 gdb_69637=T pbc="F F F"
C        0.05570000       1.48770000      -0.25810000
C       -0.11730000       0.00730000      -0.09690000
C       -1.02080000      -0.63020000       0.88740000
N        0.44060000      -0.73500000       1.09140000
C        1.03160000      -1.74900000       0.13910000
C        0.13230000      -2.40030000      -0.88840000
C        0.51810000      -0.98100000      -1.09680000
C        2.40180000      -2.21850000       0.38420000
O        3.02430000      -2.93310000      -0.37000000
H        1.09030000       1.73390000      -0.52130000
H       -0.59560000       1.87010000      -1.05270000
H       -0.19160000       2.00910000       0.67030000
H       -1.47860000       0.03160000       1.61730000
H       -1.61570000      -1.50790000       0.66380000
H        0.69230000      -3.10300000      -1.49720000
H       -0.87890000      -2.71240000      -0.65760000
H        1.12710000      -0.65450000      -1.92990000
H        2.83790000      -1.83760000       1.33230000
