19
Properties=species:S:1:pos:R:3 gdb_22625=T pbc="F F F"
C       -0.00260000       1.53670000       0.05590000
C       -0.01740000       0.03270000       0.03560000
C        0.49980000      -0.72660000      -1.22340000
C        0.35080000      -2.19820000      -0.70640000
C       -0.20720000      -1.88510000       0.70720000
N        0.62550000      -0.72310000       1.18310000
C       -1.23410000      -0.81540000       0.37640000
N       -2.46950000      -0.58150000       0.41920000
O       -3.19270000      -1.70990000       0.86890000
H        1.01310000       1.91770000      -0.09710000
H       -0.63580000       1.93610000      -0.74240000
H       -0.37340000       1.91190000       1.01260000
H       -0.10310000      -0.52420000      -2.11290000
H        1.53600000      -0.45290000      -1.44750000
H       -0.33450000      -2.79810000      -1.31110000
H        1.30570000      -2.72930000      -0.64810000
H       -0.39740000      -2.70050000       1.40110000
H        1.62370000      -0.88060000       1.02470000
H       -4.09620000      -1.37660000       0.87510000
