20
Properties=species:S:1:pos:R:3 gdb_18593=T pbc="F F F"
C        0.25040000       1.59550000       0.16800000
C        0.11230000       0.08780000       0.02900000
C        1.06770000      -0.67420000      -0.93900000
C        1.38050000      -1.70990000       0.18350000
C        2.81370000      -1.74980000       0.71620000
C        2.89680000      -0.44570000       1.52420000
O        1.59250000      -0.22970000       2.05830000
C        0.61840000      -0.81050000       1.20290000
H        1.26920000       1.87540000       0.45100000
H        0.00810000       2.09860000      -0.77460000
H       -0.42110000       1.98560000       0.94020000
H       -0.92970000      -0.17050000      -0.19140000
H        0.61000000      -1.07840000      -1.84490000
H        1.94260000      -0.08610000      -1.23610000
H        0.95520000      -2.69910000       0.00940000
H        2.95020000      -2.61310000       1.37570000
H        3.56830000      -1.80070000      -0.07430000
H        3.59750000      -0.49270000       2.36290000
H        3.19760000       0.39560000       0.88040000
H       -0.15440000      -1.25000000       1.83990000
