23
Properties=species:S:1:pos:R:3 gdb_122584=T pbc="F F F"
C       -0.11290000       1.69570000      -0.00970000
C       -0.03430000       0.17270000      -0.14540000
C       -1.39010000      -0.51650000       0.03970000
C       -1.31620000      -2.04230000      -0.10200000
C       -2.66200000      -2.73100000       0.11240000
C       -2.76020000      -4.29200000       0.09400000
C       -3.61070000      -4.27040000       1.39980000
C       -3.23110000      -2.78770000       1.54430000
O       -3.25130000      -2.01070000       2.45640000
H        0.86940000       2.16060000      -0.14000000
H       -0.78670000       2.12600000      -0.75920000
H       -0.49110000       1.98450000       0.97700000
H        0.37560000      -0.08810000      -1.13070000
H        0.67590000      -0.22430000       0.59210000
H       -1.80090000      -0.27050000       1.02570000
H       -2.10260000      -0.11940000      -0.69740000
H       -0.93490000      -2.30710000      -1.09760000
H       -0.59100000      -2.44230000       0.61980000
H       -3.41940000      -2.29220000      -0.55170000
H       -3.23270000      -4.73390000      -0.78400000
H       -1.78510000      -4.76200000       0.24450000
H       -4.68420000      -4.39500000       1.22340000
H       -3.31780000      -4.92500000       2.22420000
