18
Properties=species:S:1:pos:R:3 gdb_18269=T pbc="F F F"
C        0.03910000       1.33070000      -0.12710000
O        0.01990000      -0.08240000      -0.02870000
C       -1.25700000      -0.62370000       0.03650000
O       -1.92760000      -0.42370000      -1.21040000
C       -2.81030000      -1.51230000      -1.45480000
C       -2.20620000      -2.70440000      -0.73270000
C       -0.73040000      -2.91830000      -0.93670000
C       -1.21750000      -2.12260000       0.24690000
H        1.08600000       1.63870000      -0.08170000
H       -0.40120000       1.67440000      -1.07000000
H       -0.50650000       1.79610000       0.70810000
H       -1.83090000      -0.12300000       0.84030000
H       -3.81760000      -1.30080000      -1.06200000
H       -2.88660000      -1.63600000      -2.54090000
H       -2.84710000      -3.53780000      -0.47130000
H       -0.33760000      -3.90850000      -0.73630000
H       -0.23240000      -2.38000000      -1.73580000
H       -1.09820000      -2.49930000       1.25470000
