20
Properties=species:S:1:pos:R:3 gdb_112950=T pbc="F F F"
C       -0.48510000       0.99440000      -0.03080000
O        0.32790000      -0.16070000      -0.04600000
C        0.99270000      -0.38390000       1.16270000
C        0.16140000      -1.01940000       2.32670000
N        1.08060000      -2.15460000       2.28760000
C        1.83500000      -1.68300000       1.12390000
C        0.96170000      -3.35240000       2.92210000
C        1.98890000      -4.39870000       2.51870000
O        0.09280000      -3.54600000       3.75480000
H        0.10410000       1.89960000       0.18240000
H       -0.93240000       1.08680000      -1.02270000
H       -1.29010000       0.92120000       0.71520000
H        1.55720000       0.50690000       1.47080000
H        0.15040000      -0.48270000       3.28000000
H       -0.86500000      -1.27920000       2.04430000
H        1.66180000      -2.25640000       0.20580000
H        2.91200000      -1.56880000       1.28640000
H        3.00980000      -4.01270000       2.60380000
H        1.87160000      -5.26730000       3.16590000
H        1.83990000      -4.70600000       1.47760000
