17
Properties=species:S:1:pos:R:3 gdb_110194=T pbc="F F F"
O        0.07760000       1.44560000       0.27240000
C        0.15260000       0.07210000      -0.04320000
C       -1.24570000      -0.54740000      -0.05360000
C       -1.44540000      -2.10780000      -0.08360000
C       -2.47400000      -1.98690000       1.09510000
C       -1.95380000      -0.56260000       1.30310000
O       -1.92360000       0.19640000       2.23210000
C       -1.98660000      -2.66570000      -1.37070000
O       -1.47410000      -3.53880000      -2.01930000
H       -0.35410000       1.51360000       1.13420000
H        0.62020000      -0.00700000      -1.02990000
H        0.78920000      -0.47880000       0.66800000
H       -1.86940000      -0.04940000      -0.80730000
H       -0.54000000      -2.64690000       0.20160000
H       -3.51020000      -1.98110000       0.73490000
H       -2.39300000      -2.68590000       1.92960000
H       -2.94080000      -2.18470000      -1.69870000
