21
Properties=species:S:1:pos:R:3 gdb_89064=T pbc="F F F"
C        0.52990000       1.21700000      -0.33910000
C        0.54920000      -0.15190000       0.29530000
O        1.75470000      -0.56940000       0.94390000
C        0.57680000      -0.41530000       1.74470000
C        0.56810000       0.66180000       2.80560000
O        1.02630000       0.20660000       4.06800000
C        2.41440000       0.06160000       4.15940000
C        2.91470000      -0.78040000       5.28740000
C        3.06220000      -1.26250000       3.85670000
H        0.99050000       1.97190000       0.30040000
H        1.07680000       1.19820000      -1.28760000
H       -0.49990000       1.52190000      -0.55460000
H        0.10060000      -0.93260000      -0.32350000
H        0.15050000      -1.35900000       2.09180000
H        1.15720000       1.52620000       2.47060000
H       -0.46400000       0.99150000       2.97310000
H        2.96650000       0.96660000       3.90350000
H        3.79390000      -0.45250000       5.83040000
H        2.15890000      -1.26450000       5.89570000
H        2.41140000      -2.06710000       3.53680000
H        4.04380000      -1.26360000       3.39660000
