20
Properties=species:S:1:pos:R:3 gdb_14558=T pbc="F F F"
C        0.10890000       1.16160000      -0.30300000
O       -0.07240000      -0.12370000       0.25750000
C       -1.36150000      -0.65450000       0.09320000
C       -2.43890000       0.04060000       0.90340000
C       -1.78280000      -1.22900000      -1.23440000
C       -0.58660000      -1.83080000      -1.98440000
C       -0.27300000      -2.73850000      -0.75360000
C       -1.47490000      -2.13930000      -0.01520000
H        1.17920000       1.37890000      -0.26150000
H       -0.22390000       1.19890000      -1.35000000
H       -0.42600000       1.94050000       0.25860000
H       -2.59840000       1.07110000       0.56980000
H       -3.39250000      -0.48650000       0.81000000
H       -2.16040000       0.06370000       1.96190000
H       -2.74040000      -0.98210000      -1.68030000
H       -0.89420000      -2.41170000      -2.85660000
H        0.19560000      -1.13000000      -2.28930000
H       -0.40500000      -3.79900000      -0.97770000
H        0.69600000      -2.59000000      -0.27210000
H       -2.15910000      -2.69260000       0.61910000
