13
Properties=species:S:1:pos:R:3 gdb_124032=T pbc="F F F"
C        0.35550000       1.52280000       0.16130000
O        1.13360000       0.41470000      -0.25980000
C       -0.23290000       0.17080000       0.07160000
C       -0.48160000      -0.63320000       1.29550000
N       -1.47900000      -1.51480000       1.26650000
C       -1.60940000      -2.19100000       2.40290000
N       -0.85010000      -2.04280000       3.49000000
N        0.11300000      -1.13110000       3.44580000
N        0.31290000      -0.41980000       2.35990000
H        0.60460000       1.91740000       1.14350000
H        0.10430000       2.24770000      -0.61120000
H       -0.88490000      -0.08400000      -0.76040000
H       -2.39870000      -2.93560000       2.46610000
