18
Properties=species:S:1:pos:R:3 gdb_50630=T pbc="F F F"
N        0.05010000       1.26370000       0.39980000
C        0.03590000       0.04530000       0.05880000
C       -1.26640000      -0.72150000      -0.01610000
C       -1.28100000      -1.75370000      -1.16210000
C       -0.01960000      -2.60980000      -1.07910000
C        1.20620000      -1.70900000      -1.12710000
O        1.18760000      -0.66110000      -0.14270000
C       -2.56180000      -2.56150000      -1.13110000
O       -2.61140000      -3.76360000      -1.08590000
H        1.01450000       1.60240000       0.43450000
H       -1.38680000      -1.25440000       0.93720000
H       -2.07950000       0.00220000      -0.09130000
H       -1.29500000      -1.19850000      -2.11470000
H       -0.03150000      -3.18820000      -0.14900000
H        0.02420000      -3.33040000      -1.90100000
H        2.12360000      -2.26810000      -0.92940000
H        1.29950000      -1.24710000      -2.12050000
H       -3.49220000      -1.94810000      -1.14900000
