17
Properties=species:S:1:pos:R:3 gdb_76101=T pbc="F F F"
O       -0.20000000       1.14840000      -0.38130000
C       -0.18040000      -0.20640000      -0.08230000
C       -0.47180000      -0.67420000       1.34000000
C       -0.81060000       0.34070000       2.29050000
C       -1.06670000       1.24880000       3.04000000
C       -1.44100000      -0.98810000       0.18930000
C       -2.81640000      -0.39300000       0.17070000
C       -3.21370000       0.69180000      -0.74100000
O       -3.58120000      -0.66180000      -1.00690000
H       -0.36220000       1.63800000       0.43690000
H        0.61600000      -0.72240000      -0.61100000
H        0.11580000      -1.50020000       1.72790000
H       -1.30910000       2.01850000       3.73060000
H       -1.42300000      -2.02720000      -0.12960000
H       -3.38270000      -0.50900000       1.09560000
H       -4.03440000       1.35020000      -0.45800000
H       -2.47010000       1.11750000      -1.40730000
