18
Properties=species:S:1:pos:R:3 gdb_67428=T pbc="F F F"
C        0.11340000       1.52520000       0.37560000
C        0.05850000       0.06740000       0.06940000
C        0.76380000      -0.88660000      -0.98030000
C        1.18750000      -1.69180000       0.26140000
N        0.09370000      -1.03220000       1.04990000
C       -1.06120000      -0.94600000       0.05430000
C       -0.62810000      -1.49000000      -1.30160000
C       -2.41630000      -0.82850000       0.60870000
O       -3.41670000      -1.10560000      -0.01150000
H        1.14220000       1.84130000       0.58170000
H       -0.26120000       2.12060000      -0.46330000
H       -0.49150000       1.75090000       1.25850000
H        1.45720000      -0.60820000      -1.77150000
H        1.13690000      -2.78500000       0.21310000
H        2.14480000      -1.37970000       0.68580000
H       -1.14240000      -0.95570000      -2.10280000
H       -0.68380000      -2.56850000      -1.47840000
H       -2.45570000      -0.45360000       1.65370000
