27
Properties=species:S:1:pos:R:3 gdb_118215=T pbc="F F F"
C       -0.10300000       1.52730000       0.15510000
C       -0.08810000       0.00030000      -0.00330000
C       -1.51700000      -0.53550000      -0.17470000
C        0.79030000      -0.46210000      -1.18210000
C        2.28680000      -0.09080000      -1.14020000
C        2.99180000      -0.68440000       0.08940000
C        2.95560000      -0.53050000      -2.45590000
C        4.37990000      -0.02520000      -2.65590000
O        4.78670000      -0.40110000      -3.96530000
H        0.89000000       1.93070000       0.37470000
H       -0.46320000       2.01080000      -0.76150000
H       -0.76830000       1.82910000       0.97100000
H        0.31430000      -0.43230000       0.92240000
H       -1.98020000      -0.13240000      -1.08350000
H       -1.52750000      -1.62780000      -0.25440000
H       -2.15110000      -0.25430000       0.67270000
H        0.70950000      -1.55520000      -1.26890000
H        0.35840000      -0.05550000      -2.10770000
H        2.36710000       1.00400000      -1.08210000
H        4.04880000      -0.40520000       0.12590000
H        2.53540000      -0.34020000       1.02190000
H        2.93780000      -1.77990000       0.07690000
H        2.95810000      -1.62610000      -2.52690000
H        2.36260000      -0.16830000      -3.30450000
H        4.40400000       1.07080000      -2.53220000
H        5.05640000      -0.45260000      -1.90040000
H        5.70090000      -0.12820000      -4.08480000
