16
Properties=species:S:1:pos:R:3 gdb_98648=T pbc="F F F"
C       -0.02690000       1.29550000       0.06050000
O        0.07630000      -0.13100000       0.00430000
C        0.71790000      -0.60570000      -1.08960000
O        1.16930000       0.07560000      -1.98230000
N        0.80450000      -1.96580000      -1.03450000
C       -0.05880000      -2.92010000      -0.31790000
C        0.23310000      -3.90780000      -1.47030000
O       -0.05970000      -5.03900000      -1.69920000
C        1.06350000      -2.82750000      -2.19600000
H        0.96480000       1.75440000       0.08110000
H       -0.57390000       1.67990000      -0.80400000
H       -0.56680000       1.51550000       0.98170000
H        0.30750000      -3.22640000       0.66740000
H       -1.10860000      -2.61640000      -0.23320000
H        0.62850000      -2.46340000      -3.13440000
H        2.11690000      -3.07600000      -2.36260000
