21
Properties=species:S:1:pos:R:3 gdb_103180=T pbc="F F F"
C        0.03410000       1.59380000       0.06260000
C       -0.01840000       0.06060000       0.05750000
C       -1.44080000      -0.51150000       0.01890000
O       -2.26330000       0.01120000       1.04450000
C       -2.08380000      -0.56210000      -1.40550000
O       -1.57520000       0.37180000      -2.33290000
C       -1.65170000      -2.04790000      -1.52400000
C       -1.48270000      -2.06130000       0.01970000
O       -0.34940000      -2.68080000       0.57850000
H        1.07250000       1.93810000       0.04840000
H       -0.47390000       2.01050000      -0.81050000
H       -0.41840000       2.01350000       0.96920000
H        0.54000000      -0.31680000      -0.80420000
H        0.47420000      -0.33660000       0.95000000
H       -2.21680000       0.97220000       1.00670000
H       -3.17330000      -0.46970000      -1.30050000
H       -1.99360000       0.21120000      -3.18440000
H       -2.35190000      -2.75590000      -1.97330000
H       -0.67820000      -2.12700000      -2.01530000
H       -2.40510000      -2.38280000       0.52010000
H       -0.49870000      -3.63080000       0.59090000
