20
Properties=species:S:1:pos:R:3 gdb_100399=T pbc="F F F"
C       -0.29560000       1.33270000      -0.09230000
O        0.12220000      -0.02950000      -0.00120000
C        0.72590000      -0.54710000      -1.09090000
C        1.12300000      -1.98260000      -0.85590000
N        0.89400000       0.16310000      -2.13020000
C        1.54950000      -0.42630000      -3.30180000
C        1.19020000       0.41190000      -4.53900000
C        3.00570000      -0.49690000      -3.12330000
C        4.19840000      -0.54910000      -2.97820000
H        0.55680000       1.98790000      -0.29120000
H       -1.02350000       1.46350000      -0.89790000
H       -0.74530000       1.56720000       0.87360000
H        0.87280000      -2.28420000       0.16090000
H        0.60320000      -2.64270000      -1.55840000
H        2.19640000      -2.10630000      -1.02340000
H        1.18920000      -1.45330000      -3.47560000
H        1.65030000      -0.00510000      -5.43880000
H        0.10420000       0.42720000      -4.66500000
H        1.53730000       1.43920000      -4.40560000
H        5.25150000      -0.59320000      -2.84970000
