20
Properties=species:S:1:pos:R:3 gdb_62219=T pbc="F F F"
C       -0.19680000       1.42320000       0.03860000
N        0.02370000      -0.01060000      -0.04830000
C       -0.02470000      -0.80680000       1.16390000
C       -1.43850000      -0.99230000       1.73290000
C       -1.42460000      -1.83830000       3.02170000
C       -2.75340000      -2.02380000       3.59030000
C       -3.85990000      -2.16180000       4.03850000
C        0.30540000      -0.57720000      -1.25780000
O        0.36740000       0.00920000      -2.31750000
H        0.49060000       1.87260000       0.76550000
H       -0.01290000       1.84550000      -0.94930000
H       -1.22330000       1.65850000       0.34110000
H        0.40930000      -1.78770000       0.93820000
H        0.62150000      -0.34250000       1.92290000
H       -1.89080000      -0.01970000       1.95150000
H       -2.07280000      -1.47510000       0.98220000
H       -0.97650000      -2.81910000       2.81280000
H       -0.77250000      -1.36110000       3.76560000
H       -4.83310000      -2.29100000       4.44290000
H        0.48090000      -1.66750000      -1.16450000
