19
Properties=species:S:1:pos:R:3 gdb_91436=T pbc="F F F"
C        0.12170000       1.37100000      -0.54500000
C       -0.02150000       0.04780000       0.17610000
O        0.27050000      -1.09300000      -0.68550000
C        1.17980000      -1.64390000       0.27350000
C        2.65520000      -1.21520000       0.02900000
C        2.48280000      -0.14030000       1.15510000
C        3.01170000       1.25640000       0.98210000
O        2.44210000       2.26090000       1.32780000
C        0.97040000      -0.46210000       1.26050000
H        1.10730000       1.47980000      -1.00340000
H       -0.62730000       1.42860000      -1.34170000
H       -0.02940000       2.20590000       0.14390000
H       -1.04840000      -0.04550000       0.55690000
H        0.98420000      -2.69530000       0.49890000
H        3.41780000      -1.97200000       0.22460000
H        2.79340000      -0.81570000      -0.97830000
H        2.98000000      -0.51120000       2.06330000
H        4.02910000       1.30330000       0.52520000
H        0.55600000      -0.55950000       2.26240000
