18
Properties=species:S:1:pos:R:3 gdb_76669=T pbc="F F F"
N       -0.18900000       0.40380000       1.05550000
C       -0.03770000      -0.03650000      -0.22770000
O        0.86620000       0.33290000      -0.95250000
C       -1.11190000      -1.02750000      -0.68850000
C       -0.95140000      -2.40050000      -0.05980000
C       -1.43980000      -2.71400000       1.33540000
O       -2.13960000      -1.67460000       1.99200000
C       -2.15050000      -3.31510000       0.14610000
O       -3.43560000      -2.85740000      -0.13740000
H        0.54490000       0.97570000       1.44030000
H       -0.86050000      -0.02310000       1.67530000
H       -2.10560000      -0.62710000      -0.47200000
H       -1.01620000      -1.11330000      -1.77270000
H       -0.02420000      -2.90190000      -0.32490000
H       -0.82010000      -3.32170000       1.99010000
H       -2.59860000      -2.05130000       2.75060000
H       -2.04300000      -4.37380000      -0.06850000
H       -3.63540000      -2.17220000       0.51430000
