17
Properties=species:S:1:pos:R:3 gdb_23888=T pbc="F F F"
C       -0.10310000       1.55840000       0.06240000
C        0.04010000       0.03460000       0.02450000
C        0.77370000      -0.49050000      -1.22480000
C        2.24850000      -0.07160000      -1.29160000
C        0.65850000      -2.00750000      -1.29840000
F       -0.62430000      -2.40990000      -1.31990000
F        1.24030000      -2.49810000      -2.40660000
F        1.24380000      -2.60580000      -0.24530000
H        0.86610000       2.06300000       0.11640000
H       -0.62460000       1.93030000      -0.82670000
H       -0.68140000       1.86660000       0.93840000
H        0.57140000      -0.31390000       0.91800000
H       -0.95460000      -0.42120000       0.05870000
H        0.25460000      -0.12260000      -2.11910000
H        2.33730000       1.01600000      -1.33110000
H        2.79200000      -0.42750000      -0.41100000
H        2.73290000      -0.48250000      -2.18040000
