19
Properties=species:S:1:pos:R:3 gdb_104833=T pbc="F F F"
C        0.57570000       0.11860000       1.10820000
O        0.63180000      -1.02660000       0.25960000
C        0.86880000      -0.80330000      -1.10480000
C        2.26080000      -0.24940000      -1.43430000
O        2.38670000       1.11380000      -1.08930000
C        0.40720000      -2.05260000      -1.92020000
N       -0.65200000      -1.20440000      -2.49470000
C       -0.21960000      -0.04370000      -1.89540000
N       -0.46730000       1.20190000      -1.96610000
H        1.54590000       0.61670000       1.18790000
H       -0.16260000       0.84420000       0.74840000
H        0.26880000      -0.25550000       2.08800000
H        3.01440000      -0.80310000      -0.86290000
H        2.46260000      -0.41500000      -2.50660000
H        1.60540000       1.56880000      -1.44430000
H        1.13440000      -2.42490000      -2.64900000
H        0.03640000      -2.86760000      -1.29550000
H       -1.14340000      -1.31520000      -3.36940000
H       -1.19530000       1.42170000      -2.64840000
