18
Properties=species:S:1:pos:R:3 gdb_78897=T pbc="F F F"
C       -0.03730000       1.56990000       0.02970000
C        0.06500000       0.04470000       0.02780000
C        0.85780000      -0.55560000      -1.12490000
C        2.31580000      -0.80760000      -0.96110000
C        2.69460000      -0.89710000       0.53130000
O        2.11250000       0.11770000       1.36640000
C        0.81730000      -0.54270000       1.22520000
C        1.49800000      -1.83620000       0.66970000
N        1.29430000      -1.93710000      -0.83430000
H        0.95400000       2.01570000       0.13650000
H       -0.48800000       1.93350000      -0.89900000
H       -0.65970000       1.91960000       0.85980000
H       -0.94180000      -0.39560000      -0.00060000
H        0.49930000      -0.40950000      -2.14020000
H        3.00940000      -0.76770000      -1.79480000
H        3.73240000      -1.12830000       0.77220000
H        0.27030000      -0.55980000       2.17010000
H        1.47160000      -2.77550000       1.21480000
