18
Properties=species:S:1:pos:R:3 gdb_18059=T pbc="F F F"
C       -0.01330000      -1.02040000      -0.45560000
C       -0.01140000       0.12350000      -0.08610000
C        0.02150000       1.51300000       0.36000000
C        1.39310000       2.15480000       0.17480000
C        1.91800000       2.72420000      -1.11250000
C        0.82160000       3.44090000      -1.91150000
C        0.55270000       4.37100000      -0.68420000
C        1.64850000       3.63550000       0.09950000
H       -0.02550000      -2.03060000      -0.78180000
H       -0.74630000       2.08140000      -0.17600000
H       -0.25750000       1.56120000       1.42100000
H        2.16870000       1.63280000       0.73080000
H        2.86690000       2.39800000      -1.52150000
H        1.21850000       3.99570000      -2.76400000
H       -0.00750000       2.81950000      -2.26540000
H        0.81930000       5.40880000      -0.89480000
H       -0.45400000       4.36080000      -0.25270000
H        2.35810000       4.11440000       0.76440000
