17
Properties=species:S:1:pos:R:3 gdb_36002=T pbc="F F F"
C        0.27210000      -1.28740000       0.00800000
C        0.12000000      -0.09570000      -0.01230000
C       -0.04450000       1.35470000      -0.07220000
C        1.35840000       2.03530000      -0.09210000
C        1.27970000       3.47700000       0.13030000
N        1.19450000       4.61120000       0.33570000
C       -0.89020000       1.74500000      -1.28080000
C       -2.36060000       1.87250000      -1.14340000
N       -1.52540000       3.06230000      -1.37420000
H        0.39240000      -2.34250000       0.03810000
H       -0.56250000       1.69040000       0.83620000
H        1.98840000       1.59640000       0.68740000
H        1.84960000       1.83930000      -1.05080000
H       -0.48390000       1.38560000      -2.22460000
H       -3.01090000       1.59920000      -1.96890000
H       -2.79100000       1.71470000      -0.15720000
H       -1.39800000       3.59600000      -0.51780000
