20
Properties=species:S:1:pos:R:3 gdb_35971=T pbc="F F F"
N        0.25030000      -1.22700000       0.25990000
C        0.11940000      -0.08380000       0.14850000
C       -0.02200000       1.36940000       0.02850000
C       -0.85230000       1.92300000       1.21400000
C       -1.52020000       3.28810000       0.97350000
C       -0.65460000       4.40400000       0.33870000
C        0.86360000       4.26850000       0.48080000
O        1.41120000       3.33860000      -0.44570000
C        1.39960000       1.99170000      -0.05880000
H       -0.53830000       1.57400000      -0.91810000
H       -1.63550000       1.20250000       1.46830000
H       -0.19330000       1.96770000       2.08910000
H       -2.40820000       3.14080000       0.34820000
H       -1.89860000       3.62800000       1.94410000
H       -0.85240000       4.46760000      -0.73710000
H       -0.95720000       5.36980000       0.75960000
H        1.33350000       5.22660000       0.23650000
H        1.16190000       4.00890000       1.50880000
H        1.89850000       1.85130000       0.91420000
H        1.98130000       1.45710000      -0.81490000
