18
Properties=species:S:1:pos:R:3 gdb_94912=T pbc="F F F"
C       -0.08620000       1.55200000      -0.05830000
C       -0.01070000       0.02670000       0.03560000
C        0.65790000      -0.64260000      -1.19160000
O        1.33090000      -1.82240000      -0.72030000
C        1.53750000      -1.70680000       0.64710000
C        2.31950000      -0.50240000       1.19080000
C        3.09220000       0.36020000       0.34760000
N        3.73390000       1.05300000      -0.32250000
C        0.78230000      -0.54940000       1.20440000
H        0.90950000       1.99470000      -0.14730000
H       -0.66970000       1.85690000      -0.93330000
H       -0.57170000       1.97580000       0.82620000
H       -1.02760000      -0.37140000       0.14350000
H       -0.06090000      -0.95510000      -1.95360000
H        1.38450000       0.03320000      -1.65520000
H        1.66540000      -2.66560000       1.13570000
H        2.77440000      -0.66360000       2.16370000
H        0.31660000      -0.57730000       2.18250000
