15
Properties=species:S:1:pos:R:3 gdb_24488=T pbc="F F F"
C       -0.05220000       1.49230000       0.01050000
C        1.40140000       1.90180000      -0.00120000
C        2.21050000       0.82630000      -0.01470000
C        1.39790000      -0.38820000      -0.01340000
C        1.65970000      -1.75010000      -0.02320000
N        0.66010000      -2.64320000      -0.01850000
C       -0.58250000      -2.16350000      -0.00400000
N       -0.96310000      -0.87440000       0.00650000
C        0.04050000      -0.01280000       0.00160000
H       -0.59010000       1.85850000       0.89450000
H       -0.60690000       1.86790000      -0.85900000
H        1.72270000       2.93530000       0.00130000
H        3.29310000       0.84060000      -0.02500000
H        2.67210000      -2.14880000      -0.03500000
H       -1.38360000      -2.89820000      -0.00020000
