17
Properties=species:S:1:pos:R:3 gdb_41104=T pbc="F F F"
C        0.07500000       1.53860000       0.00360000
O        1.54500000       1.52080000       0.15520000
C        1.53110000       0.10520000       0.24390000
C        1.73640000      -1.09540000      -0.76800000
C        1.76930000      -1.99930000       0.50230000
C        1.24610000      -0.86750000       1.42490000
O       -0.19930000      -0.68190000       1.26400000
C        0.05290000      -0.00120000       0.01520000
C        0.25760000      -0.88990000      -1.24320000
H       -0.41180000       2.00910000       0.86300000
H       -0.22200000       2.03600000      -0.92600000
H        2.53390000      -1.22400000      -1.49850000
H        1.16930000      -2.91240000       0.48080000
H        2.80430000      -2.23430000       0.76860000
H        1.55920000      -0.83340000       2.46900000
H        0.18660000      -0.30460000      -2.16440000
H       -0.37080000      -1.77890000      -1.32990000
