21
Properties=species:S:1:pos:R:3 gdb_117178=T pbc="F F F"
C       -0.30140000       0.83490000       1.35900000
C       -0.23100000      -0.18890000       0.24280000
O       -1.51160000      -0.85230000       0.17280000
C       -1.63240000      -1.79590000      -0.78360000
O       -0.75870000      -2.07170000      -1.56560000
C       -3.00450000      -2.48370000      -0.70450000
C       -3.30880000      -3.24300000      -1.98480000
O       -2.99050000      -3.41790000       0.36820000
C       -3.34140000      -2.89420000       1.63370000
H        0.65270000       1.36470000       1.43620000
H       -1.08850000       1.56940000       1.16690000
H       -0.50580000       0.35450000       2.32010000
H       -0.02300000       0.27350000      -0.72690000
H        0.54570000      -0.93920000       0.42010000
H       -3.76560000      -1.71210000      -0.51570000
H       -4.27470000      -3.74480000      -1.89170000
H       -3.33970000      -2.56210000      -2.83970000
H       -2.53190000      -3.98720000      -2.17050000
H       -4.33840000      -2.42760000       1.61100000
H       -3.36300000      -3.73940000       2.32610000
H       -2.61980000      -2.15120000       1.99310000
