14
Properties=species:S:1:pos:R:3 gdb_48297=T pbc="F F F"
O       -0.54070000       0.05320000      -1.26930000
C        0.58970000       0.42850000      -1.38320000
C        1.39150000       1.07670000      -0.23670000
O        2.74250000       0.68240000      -0.46490000
C        3.66990000       1.13520000       0.49610000
C        3.47370000       0.50760000       1.81630000
N        3.30330000       0.01800000       2.84860000
C        1.20940000       2.52690000      -0.27940000
C        1.05830000       3.71750000      -0.34700000
H        1.17110000       0.35510000      -2.32550000
H        1.01580000       0.67230000       0.71320000
H        4.66050000       0.86930000       0.11760000
H        3.62660000       2.22630000       0.61490000
H        0.91480000       4.76970000      -0.39440000
