20
Properties=species:S:1:pos:R:3 gdb_7438=T pbc="F F F"
C       -1.85750000       1.13370000      -0.35480000
N       -1.15700000      -0.12510000      -0.15930000
C       -0.59770000      -0.30290000       1.17290000
C       -0.56560000      -0.67980000      -1.29000000
O       -0.49660000      -0.07700000      -2.34990000
N       -0.05770000      -1.96590000      -1.13470000
C        0.72780000      -2.48260000      -2.24370000
C       -0.75460000      -2.98520000      -0.36360000
H       -1.18460000       1.99980000      -0.27070000
H       -2.30510000       1.14890000      -1.34730000
H       -2.64140000       1.23160000       0.40410000
H       -0.12210000       0.62820000       1.51450000
H       -1.37220000      -0.56990000       1.90310000
H        0.16270000      -1.08240000       1.16570000
H        1.27130000      -1.66510000      -2.71460000
H        1.43710000      -3.22740000      -1.86660000
H        0.09920000      -2.96040000      -3.00960000
H       -1.55250000      -2.53700000       0.22650000
H       -1.20930000      -3.72780000      -1.03560000
H       -0.07170000      -3.51800000       0.31030000
