16
Properties=species:S:1:pos:R:3 gdb_76277=T pbc="F F F"
C        0.26020000       1.55100000       0.05500000
C       -0.05370000       0.04960000      -0.06140000
C        0.67010000      -0.64170000      -1.23410000
O        0.92470000       0.17490000      -2.34050000
C        1.93720000      -1.13910000      -0.56970000
N        3.02090000      -1.32500000      -1.17710000
O        1.70870000      -1.31860000       0.77290000
C        0.50970000      -0.69530000       1.14310000
O        0.10510000      -0.76580000       2.25800000
H        1.33720000       1.73090000       0.12430000
H       -0.10690000       2.07070000      -0.83120000
H       -0.21900000       1.96500000       0.94500000
H       -1.13490000      -0.09860000      -0.08650000
H        0.08780000      -1.53050000      -1.53210000
H        1.81420000      -0.05430000      -2.64620000
H        3.77170000      -1.63820000      -0.56220000
