20
Properties=species:S:1:pos:R:3 gdb_61892=T pbc="F F F"
O       -0.21570000       1.35740000       0.14380000
C        0.13720000      -0.00960000       0.03220000
C        0.88610000      -0.19620000      -1.29100000
C        0.02650000       0.14770000      -2.49000000
O       -0.12170000      -0.57260000      -3.44500000
C        0.98250000      -0.42740000       1.24010000
N        0.25050000      -0.07520000       2.45400000
C       -0.52930000      -1.13430000       3.09270000
C        0.73060000      -0.63670000       3.71020000
H       -0.41530000       1.49270000       1.08150000
H       -0.77130000      -0.63820000       0.01920000
H        1.74740000       0.48640000      -1.28800000
H        1.24730000      -1.22240000      -1.40390000
H       -0.47250000       1.13730000      -2.42790000
H        1.23200000      -1.50080000       1.18760000
H        1.92000000       0.14170000       1.23360000
H       -1.49360000      -0.83740000       3.49370000
H       -0.50730000      -2.12320000       2.63860000
H        1.59770000      -1.29330000       3.67160000
H        0.70000000       0.02810000       4.56850000
