19
Properties=species:S:1:pos:R:3 gdb_56283=T pbc="F F F"
C       -0.05770000       1.44130000      -0.16550000
C        0.07040000      -0.04050000       0.07590000
N        0.24530000      -0.66020000       1.16960000
O       -0.02820000      -0.71080000      -1.09370000
C        0.07490000      -2.13430000      -1.02380000
C       -0.06340000      -2.66300000      -2.44410000
C        0.03530000      -4.20030000      -2.47030000
C       -0.09330000      -4.74530000      -3.81970000
N       -0.19650000      -5.16280000      -4.89210000
H        0.01950000       1.99750000       0.76980000
H        0.72490000       1.78030000      -0.85090000
H       -1.01920000       1.66420000      -0.63770000
H        0.29710000      -0.00740000       1.94800000
H        1.03720000      -2.41090000      -0.57740000
H       -0.70790000      -2.52680000      -0.36430000
H       -1.02380000      -2.34740000      -2.86310000
H        0.71920000      -2.23180000      -3.07580000
H        0.99510000      -4.52910000      -2.05450000
H       -0.74580000      -4.64450000      -1.84190000
