18
Properties=species:S:1:pos:R:3 gdb_32142=T pbc="F F F"
C       -0.10250000       1.39090000      -0.04370000
O       -0.05040000      -0.02250000       0.04410000
C        0.63010000      -0.57400000       1.08210000
C        1.29170000       0.14410000       2.08450000
N        1.94610000      -0.45340000       3.08320000
C        1.96560000      -1.78330000       3.12000000
C        1.33940000      -2.60170000       2.17220000
C        1.39970000      -4.10450000       2.27220000
C        0.66150000      -1.96770000       1.13750000
H        0.89920000       1.82650000      -0.14870000
H       -0.68800000       1.61700000      -0.93610000
H       -0.59390000       1.83240000       0.83250000
H        1.29840000       1.22900000       2.08900000
H        2.50840000      -2.23430000       3.94820000
H        0.39760000      -4.53950000       2.35510000
H        1.86990000      -4.54500000       1.38620000
H        1.97450000      -4.41830000       3.14750000
H        0.15050000      -2.53130000       0.36310000
