23
Properties=species:S:1:pos:R:3 gdb_107698=T pbc="F F F"
C        0.01460000       1.53490000       0.05380000
C       -0.07600000       0.00750000      -0.05460000
C       -1.49380000      -0.50500000      -0.05220000
C       -2.62730000      -0.20200000      -1.05720000
C       -3.27930000      -1.16430000      -0.04380000
C       -4.68870000      -1.69040000      -0.03050000
C       -1.95470000      -1.99990000       0.11330000
C       -1.98640000      -1.90030000       1.65110000
C       -2.49540000      -0.52940000       1.16500000
H        1.05570000       1.87140000       0.03960000
H       -0.50520000       2.02210000      -0.77780000
H       -0.44070000       1.89170000       0.98370000
H        0.42070000      -0.32480000      -0.97630000
H        0.47820000      -0.45460000       0.77290000
H       -3.01320000       0.82390000      -1.07900000
H       -2.49270000      -0.57910000      -2.07850000
H       -4.90810000      -2.25140000      -0.94610000
H       -4.85890000      -2.35960000       0.82020000
H       -5.41420000      -0.87180000       0.03840000
H       -1.64790000      -2.83580000      -0.52020000
H       -2.70570000      -2.53850000       2.17430000
H       -1.02270000      -1.91710000       2.17000000
H       -2.81820000       0.33540000       1.74950000
