18
Properties=species:S:1:pos:R:3 gdb_107606=T pbc="F F F"
O       -0.02330000       1.38650000       0.48360000
C        0.05060000       0.03280000       0.08550000
C       -1.31570000      -0.56840000      -0.12080000
N       -2.15160000      -1.08410000       1.00880000
C       -1.68810000      -2.00860000      -0.03170000
C       -2.77780000      -2.32810000      -1.05040000
C       -3.32600000      -0.94840000      -1.48530000
C       -2.21290000       0.04820000      -1.15840000
O       -2.03020000       1.12960000      -1.67100000
H       -0.52300000       1.83720000      -0.21090000
H        0.63500000      -0.08310000      -0.84180000
H        0.58570000      -0.50760000       0.87570000
H       -1.54560000      -1.15020000       1.82530000
H       -0.94290000      -2.75760000       0.21880000
H       -2.33380000      -2.85180000      -1.90370000
H       -3.55080000      -2.97520000      -0.62690000
H       -3.59970000      -0.88650000      -2.54010000
H       -4.20540000      -0.66440000      -0.89790000
