17
Properties=species:S:1:pos:R:3 gdb_28887=T pbc="F F F"
C        0.04010000       1.50660000      -0.02890000
C        0.03370000      -0.00040000      -0.01710000
C        0.09880000      -0.72940000      -1.20350000
O        0.16530000      -0.15340000      -2.44080000
C        0.09180000      -2.13190000      -1.17050000
N        0.21950000      -2.86220000      -2.35080000
C        0.00680000      -2.73010000       0.08870000
N       -0.05730000      -2.05820000       1.23880000
C       -0.04040000      -0.72870000       1.17320000
H        0.95310000       1.91350000      -0.48370000
H       -0.81560000       1.92160000      -0.57880000
H       -0.01420000       1.89820000       0.98960000
H        0.13690000       0.80410000      -2.35060000
H       -0.07320000      -2.35780000      -3.17540000
H       -0.17620000      -3.79030000      -2.31270000
H       -0.00740000      -3.81730000       0.15580000
H       -0.09070000      -0.19400000       2.11980000
