12
Properties=species:S:1:pos:R:3 gdb_133465=T pbc="F F F"
F        0.32650000       0.11070000       0.10740000
C       -0.03250000       1.40250000       0.01160000
F        1.09100000       2.09370000      -0.24660000
F       -0.83630000       1.52160000      -1.05650000
C       -0.70510000       1.88270000       1.24740000
C       -1.96710000       2.37950000       1.33230000
O       -2.24980000       2.71790000       2.61030000
C       -1.14620000       2.43150000       3.35550000
C       -0.16390000       1.91630000       2.57600000
H       -2.74340000       2.54450000       0.60500000
H       -1.22280000       2.65060000       4.40720000
H        0.81740000       1.59870000       2.88950000
