17
Properties=species:S:1:pos:R:3 gdb_74682=T pbc="F F F"
N       -0.14920000       1.39730000       0.08020000
C       -0.14440000       0.02960000       0.01680000
N       -1.08790000      -0.75390000       0.36650000
C       -0.65070000      -2.09760000      -0.03720000
C       -1.36320000      -2.62020000      -1.26470000
C       -0.53660000      -2.81870000      -2.28880000
C        0.90210000      -2.49970000      -1.95480000
C        0.82450000      -1.92020000      -0.52880000
O        0.99480000      -0.48350000      -0.52760000
H        0.75810000       1.82540000       0.18290000
H       -0.86440000       1.77280000       0.68320000
H       -0.74700000      -2.78590000       0.81120000
H       -2.43510000      -2.77790000      -1.27350000
H       -0.83190000      -3.17950000      -3.26820000
H        1.53480000      -3.39620000      -1.98400000
H        1.35330000      -1.77640000      -2.64340000
H        1.58070000      -2.33630000       0.14130000
