21
Properties=species:S:1:pos:R:3 gdb_60922=T pbc="F F F"
C       -0.85570000       0.97280000      -0.17810000
C        0.03990000      -0.23920000       0.10670000
C       -0.75120000      -1.37300000       0.74880000
O       -0.29090000      -2.45360000       1.03710000
C        0.76890000      -0.72860000      -1.13970000
C        2.17550000      -0.25820000      -1.49640000
C        2.95950000       0.71960000      -0.64820000
C        1.94480000      -1.67340000      -1.02800000
O        2.41240000      -2.01400000       0.23930000
H       -0.26380000       1.80430000      -0.56810000
H       -1.62120000       0.73120000      -0.92420000
H       -1.36670000       1.31680000       0.72740000
H        0.78740000       0.03590000       0.86100000
H       -1.82090000      -1.15530000       0.96660000
H        0.10200000      -0.89680000      -1.98300000
H        2.34480000      -0.15060000      -2.56480000
H        2.96480000       0.42170000       0.40180000
H        4.00350000       0.74660000      -0.97730000
H        2.56250000       1.73800000      -0.72720000
H        2.01600000      -2.47010000      -1.76930000
H        1.66880000      -2.44170000       0.69320000
