16
Properties=species:S:1:pos:R:3 gdb_129460=T pbc="F F F"
N        0.17330000       1.22390000      -0.24340000
C       -0.03280000       0.02490000       0.36060000
O        0.65740000      -0.36330000       1.28850000
C       -1.22770000      -0.77630000      -0.16460000
C       -0.97640000      -2.25210000      -0.23900000
C       -1.43840000      -3.21070000      -1.12250000
C       -0.89610000      -4.42270000      -0.64630000
N       -0.15370000      -4.24030000       0.44290000
N       -0.22910000      -2.91780000       0.67560000
H        0.93460000       1.79760000       0.08220000
H       -0.35590000       1.52700000      -1.04110000
H       -2.05360000      -0.56460000       0.53040000
H       -1.55170000      -0.41580000      -1.14500000
H       -2.07460000      -3.05240000      -1.97880000
H       -1.01430000      -5.41630000      -1.05340000
H        0.31160000      -2.47350000       1.40320000
