15
Properties=species:S:1:pos:R:3 gdb_48809=T pbc="F F F"
O       -0.13960000       0.02270000       0.17120000
C       -0.01410000       1.21260000       0.01480000
C        1.27690000       1.90720000      -0.01230000
N        1.43900000       3.34070000       0.31700000
C        1.73740000       2.91940000      -1.04370000
C        3.15100000       2.32720000      -1.03760000
C        2.67120000       1.26200000       0.02520000
C        3.35970000       1.22270000       1.30630000
N        3.92230000       1.18870000       2.31500000
H       -0.89060000       1.88270000      -0.15050000
H        0.51420000       3.77200000       0.33930000
H        1.18340000       3.30180000      -1.89210000
H        3.43380000       1.85750000      -1.97980000
H        3.93190000       3.01220000      -0.70530000
H        2.63430000       0.25810000      -0.40220000
