18
Properties=species:S:1:pos:R:3 gdb_111959=T pbc="F F F"
C       -0.14510000       1.57030000      -0.07630000
C        0.08150000       0.05830000       0.01080000
N        0.68630000      -0.50570000      -1.18390000
C        0.04560000      -0.69160000      -2.42210000
C        0.88820000      -1.08790000      -3.38130000
C        2.26460000      -1.22990000      -2.77800000
O        3.32830000      -0.57940000      -3.44130000
C        2.04640000      -0.73430000      -1.31690000
O        2.87980000      -0.55820000      -0.45880000
H        0.80480000       2.09290000      -0.21910000
H       -0.80880000       1.82900000      -0.90770000
H       -0.60310000       1.93750000       0.84730000
H        0.76500000      -0.17400000       0.83140000
H       -0.86370000      -0.46200000       0.20340000
H       -1.02200000      -0.52440000      -2.48000000
H        0.63560000      -1.32720000      -4.40270000
H        2.56480000      -2.28450000      -2.72370000
H        3.11030000       0.35730000      -3.50050000
