16
Properties=species:S:1:pos:R:3 gdb_51913=T pbc="F F F"
O       -0.49220000       0.51450000       0.76370000
C        0.01630000       1.05790000      -0.18040000
C        1.26010000       1.93560000      -0.09110000
N        1.32640000       2.85150000      -1.20590000
C        1.38980000       4.09570000      -0.95010000
N        1.37490000       5.04460000      -1.93460000
C        1.44190000       4.63670000      -3.32610000
C        1.14200000       5.76240000      -4.21100000
N        0.92390000       6.65760000      -4.90710000
H       -0.38130000       0.94900000      -1.21390000
H        1.27900000       2.41190000       0.90180000
H        2.11870000       1.24640000      -0.13440000
H        1.43660000       4.52120000       0.06100000
H        1.68370000       5.97430000      -1.70410000
H        2.42370000       4.21970000      -3.59470000
H        0.71560000       3.83340000      -3.48510000
