13
Properties=species:S:1:pos:R:3 gdb_25301=T pbc="F F F"
O       -0.08250000       0.02650000       0.00330000
C       -0.02900000       1.22690000       0.00880000
C        1.33120000       1.96620000      -0.00220000
O        2.36980000       1.34010000      -0.01690000
C        1.28500000       3.43180000       0.00630000
C        2.37330000       4.28090000      -0.00100000
N        1.84780000       5.53830000       0.01170000
C        0.48060000       5.41800000       0.02620000
N        0.11020000       4.16540000       0.02340000
H       -0.92970000       1.86860000       0.02170000
H        3.43170000       4.08420000      -0.01370000
H        2.37080000       6.39920000       0.01070000
H       -0.17170000       6.27820000       0.03810000
