17
Properties=species:S:1:pos:R:3 gdb_11555=T pbc="F F F"
O       -0.04620000       1.15600000       0.66570000
C       -1.35030000       0.67420000       0.57400000
C       -1.41840000      -0.62330000      -0.21090000
O       -0.40300000      -1.08340000      -0.69310000
C       -2.75450000      -1.33270000      -0.34100000
C       -2.84340000      -2.48570000       0.65260000
C       -3.31550000      -3.81950000       0.20140000
N       -1.90340000      -3.60660000       0.55350000
H        0.49370000       0.51650000       0.17370000
H       -1.78860000       0.49450000       1.57130000
H       -2.01780000       1.40050000       0.07730000
H       -3.58500000      -0.63640000      -0.18040000
H       -2.82000000      -1.72000000      -1.36290000
H       -3.04860000      -2.18190000       1.67760000
H       -3.86540000      -4.46410000       0.88110000
H       -3.58890000      -3.92780000      -0.84550000
H       -1.32920000      -3.49800000      -0.27980000
