16
Properties=species:S:1:pos:R:3 gdb_105283=T pbc="F F F"
C       -0.11920000       1.45160000      -0.75720000
C       -0.01640000       0.09950000      -0.04160000
C       -1.37630000      -0.54780000       0.15950000
O       -2.00120000      -1.14170000      -0.97420000
C       -1.63010000      -2.01950000       0.09010000
C       -0.52460000      -2.99310000      -0.19560000
O       -0.35010000      -3.98180000       0.46620000
C       -2.28610000       0.20730000       1.01340000
N       -2.97810000       0.82180000       1.70540000
H        0.87530000       1.88460000      -0.89100000
H       -0.57710000       1.33440000      -1.74350000
H       -0.72230000       2.16080000      -0.18270000
H        0.61280000      -0.58280000      -0.61810000
H        0.45300000       0.21990000       0.94130000
H       -2.44860000      -2.42330000       0.68380000
H        0.10260000      -2.74140000      -1.07600000
