17
Properties=species:S:1:pos:R:3 gdb_82125=T pbc="F F F"
O       -0.00920000       1.46880000      -0.04410000
C        0.00950000       0.05800000      -0.04950000
C       -1.32530000      -0.68480000       0.05560000
C       -2.22130000      -0.28100000      -1.04230000
N       -1.18110000      -1.28100000      -1.34320000
C        0.13060000      -0.54990000      -1.47200000
C        0.30720000       0.40840000      -2.65340000
C        0.29030000      -0.28630000      -3.93900000
N        0.28510000      -0.83530000      -4.95550000
H       -0.18820000       1.77510000       0.85120000
H        0.77050000      -0.33320000       0.63630000
H       -1.64630000      -1.29120000       0.89590000
H       -3.21650000      -0.71260000      -1.05850000
H       -2.15750000       0.72660000      -1.44180000
H        0.91590000      -1.30800000      -1.51020000
H       -0.45930000       1.18730000      -2.65540000
H        1.26610000       0.92720000      -2.54320000
