18
Properties=species:S:1:pos:R:3 gdb_82123=T pbc="F F F"
O       -0.00930000       1.40420000       0.07490000
C        0.01310000      -0.00020000      -0.03100000
C       -1.36520000      -0.64260000       0.06630000
C       -2.24030000      -0.16650000      -1.05570000
C       -1.21510000      -1.22620000      -1.34770000
C        0.18810000      -0.62700000      -1.47150000
C        0.47510000       0.33320000      -2.63740000
C        1.73050000       1.05250000      -2.42740000
N        2.72180000       1.60500000      -2.20520000
H        0.89610000       1.73000000       0.01260000
H        0.72720000      -0.44180000       0.67390000
H       -1.77070000      -1.10880000       0.95510000
H       -3.26430000      -0.52330000      -1.01890000
H       -2.13910000       0.84720000      -1.42970000
H       -1.49640000      -2.21230000      -1.69630000
H        0.95910000      -1.40150000      -1.44940000
H        0.53200000      -0.21780000      -3.58270000
H       -0.32570000       1.07090000      -2.73880000
