18
Properties=species:S:1:pos:R:3 gdb_6882=T pbc="F F F"
C       -0.04020000       1.55430000      -0.10360000
C        0.02250000       0.03880000      -0.03500000
C       -1.21760000      -0.65730000      -0.56440000
C        1.32940000      -0.64530000      -0.22140000
O        2.44240000       0.15540000      -0.47400000
C        0.69250000      -0.65140000       1.17930000
C        1.29980000       0.11910000       2.28260000
O        1.24480000      -0.21770000       3.44380000
H        0.91410000       2.02250000       0.13740000
H       -0.30870000       1.86290000      -1.12000000
H       -0.80590000       1.94390000       0.57540000
H       -1.40100000      -0.37320000      -1.60700000
H       -1.12130000      -1.74640000      -0.52370000
H       -2.10050000      -0.37740000       0.02040000
H        1.32940000      -1.60540000      -0.73830000
H        3.22280000      -0.28920000      -0.12630000
H        0.24140000      -1.58220000       1.50900000
H        1.83690000       1.04310000       1.98520000
