19
Properties=species:S:1:pos:R:3 gdb_107255=T pbc="F F F"
C        0.00830000       1.41220000       0.00630000
O       -0.06150000      -0.00670000       0.11740000
C       -1.33120000      -0.52780000       0.07260000
C       -1.62710000      -1.73800000      -0.74890000
C       -2.42530000      -0.46590000      -0.98680000
C       -3.47840000      -0.16780000       0.12180000
C       -3.55450000      -1.22010000       1.21640000
C       -2.41540000      -0.23530000       1.18110000
O       -2.18620000       0.68820000       2.18710000
H        1.06940000       1.67160000       0.01590000
H       -0.43720000       1.75380000      -0.93780000
H       -0.50040000       1.90540000       0.84050000
H       -0.87410000      -1.91080000      -1.51270000
H       -2.06020000      -2.64940000      -0.35120000
H       -2.43920000       0.01580000      -1.95570000
H       -4.25770000       0.57280000      -0.00120000
H       -4.28530000      -0.97890000       1.98360000
H       -3.45070000      -2.28300000       1.02860000
H       -1.71900000       0.24060000       2.90220000
