21
Properties=species:S:1:pos:R:3 gdb_57896=T pbc="F F F"
C       -0.20040000       1.57520000      -0.04980000
C        0.00250000       0.05770000       0.09270000
O        0.69020000      -0.23660000       1.27810000
C       -1.33710000      -0.68670000       0.07440000
O       -1.67350000      -1.30340000       1.07230000
C       -2.15140000      -0.62190000      -1.15890000
C       -3.18380000      -1.71220000      -1.41050000
C       -3.66530000      -0.33960000      -1.09270000
C       -4.37540000      -0.01920000       0.20270000
H        0.77260000       2.06920000       0.00790000
H       -0.66870000       1.83890000      -1.00260000
H       -0.82340000       1.95100000       0.76740000
H        0.58320000      -0.30100000      -0.77480000
H        0.07600000      -0.78760000       1.79170000
H       -1.63990000      -0.21230000      -2.02290000
H       -3.26830000      -2.09010000      -2.42300000
H       -3.25570000      -2.45730000      -0.62520000
H       -4.00700000       0.24330000      -1.94440000
H       -3.96710000      -0.59660000       1.03390000
H       -4.29020000       1.04470000       0.44840000
H       -5.44110000      -0.25490000       0.11050000
