17
Properties=species:S:1:pos:R:3 gdb_95132=T pbc="F F F"
O        0.34910000       1.42890000       0.11220000
C        0.08230000       0.04410000       0.01320000
C        0.64200000      -0.76870000       1.21420000
O       -0.20360000      -1.90060000       1.39050000
C       -1.46810000      -1.58690000       0.89350000
C       -2.14290000      -0.32680000       1.29960000
C       -1.38110000      -0.35940000      -0.02680000
C       -2.14820000      -0.35100000      -1.28940000
O       -3.34770000      -0.48750000      -1.36100000
H       -0.20780000       1.79060000       0.81100000
H        0.56360000      -0.26830000      -0.92060000
H        1.66090000      -1.13010000       1.05960000
H        0.64160000      -0.12510000       2.10630000
H       -2.04380000      -2.46240000       0.61820000
H       -3.22070000      -0.29100000       1.18640000
H       -1.73730000       0.25310000       2.12200000
H       -1.52720000      -0.23300000      -2.20530000
