19
Properties=species:S:1:pos:R:3 gdb_107445=T pbc="F F F"
O       -0.03240000       1.38500000       0.37720000
C       -0.02340000       0.05900000      -0.13040000
C       -1.38350000      -0.58600000      -0.02770000
C       -1.91930000      -1.48370000      -1.08180000
N       -2.41010000      -0.09780000      -0.99280000
C       -3.68510000       0.08980000      -0.25680000
C       -3.44010000      -0.23830000       1.21190000
N       -3.11080000      -1.65630000       1.46280000
C       -2.02300000      -0.66060000       1.34400000
H       -0.69120000       1.86260000      -0.14040000
H        0.31140000       0.03060000      -1.17740000
H        0.70980000      -0.49150000       0.46990000
H       -1.32490000      -1.68990000      -1.96910000
H       -2.57270000      -2.28670000      -0.75750000
H       -3.97740000       1.14130000      -0.35450000
H       -4.47880000      -0.52190000      -0.69750000
H       -3.95340000       0.32940000       1.98240000
H       -3.26550000      -1.87140000       2.44520000
H       -1.42040000      -0.41300000       2.21010000
