15
Properties=species:S:1:pos:R:3 gdb_130076=T pbc="F F F"
N        0.04250000       1.27740000       0.10320000
C       -0.02140000      -0.08460000      -0.05180000
N       -1.15090000      -0.77720000       0.10710000
N       -0.64870000      -2.06120000       0.13160000
C       -0.89310000      -3.32540000      -0.59850000
C       -0.38860000      -3.23950000      -2.01200000
C        0.60880000      -3.39520000      -0.86630000
C        0.66530000      -2.03690000      -0.20480000
N        1.13020000      -0.81590000      -0.32230000
H        0.80340000       1.71140000      -0.39670000
H       -0.84280000       1.75200000       0.00860000
H       -1.57080000      -4.07410000      -0.21180000
H       -0.54620000      -4.11910000      -2.63110000
H       -0.44590000      -2.29460000      -2.54250000
H        1.27860000      -4.23570000      -0.76000000
