23
Properties=species:S:1:pos:R:3 gdb_109776=T pbc="F F F"
C       -0.67360000       1.04430000      -1.72000000
C       -0.14940000      -0.15060000      -0.94910000
C        1.32270000      -0.50170000      -0.84140000
C        2.41100000       0.31900000      -1.48190000
O        3.61370000       0.08660000      -0.75600000
C        0.56380000      -0.02700000       0.38340000
C        0.83270000       1.28690000       1.04910000
C        0.08580000       1.65300000       2.31120000
C        1.55550000       1.31770000       2.37250000
H       -0.03250000       1.92440000      -1.63190000
H       -0.76780000       0.81230000      -2.78680000
H       -1.66660000       1.32990000      -1.35570000
H       -0.80420000      -1.01520000      -1.03140000
H        1.55570000      -1.56330000      -0.86120000
H        2.52550000       0.01590000      -2.53570000
H        2.15550000       1.38800000      -1.48300000
H        4.32540000       0.55300000      -1.20460000
H        0.33210000      -0.81100000       1.10180000
H        1.04970000       2.11670000       0.38520000
H       -0.21680000       2.68490000       2.45340000
H       -0.61730000       0.92780000       2.70830000
H        1.84310000       0.36650000       2.80780000
H        2.26260000       2.11890000       2.55630000
