15
Properties=species:S:1:pos:R:3 gdb_123636=T pbc="F F F"
C       -0.05450000       1.55470000      -0.00570000
C        1.45290000       1.89190000      -0.03240000
N        2.19840000       1.44490000       1.15710000
C        2.27080000       0.63290000      -0.09010000
C        1.24210000      -0.42560000      -0.07640000
C       -0.02730000       0.04740000       0.00500000
C       -0.79770000      -1.13760000       0.07830000
N       -0.04280000      -2.21670000       0.02090000
O        1.28690000      -1.75440000      -0.06890000
H       -0.53160000       1.98700000       0.88000000
H       -0.56070000       1.96420000      -0.88750000
H        1.78120000       2.79200000      -0.54100000
H        3.05220000       1.99510000       1.23610000
H        3.20400000       0.54450000      -0.63240000
H       -1.86770000      -1.27320000       0.15480000
