21
Properties=species:S:1:pos:R:3 gdb_82100=T pbc="F F F"
O        0.11250000       1.36810000      -0.21900000
C       -0.05590000      -0.01360000      -0.00700000
C        0.41750000      -0.62550000       1.31030000
C       -0.43060000      -0.14440000       2.46000000
C       -0.97770000      -1.21180000       1.55960000
C       -1.50570000      -0.60660000       0.24890000
C       -2.68850000       0.32350000       0.28540000
C       -3.46020000       0.61170000      -0.97750000
C       -4.08580000      -0.22460000       0.11040000
H       -0.06080000       1.82140000       0.61230000
H        0.40510000      -0.49790000      -0.87120000
H        1.38850000      -1.07510000       1.48010000
H       -0.09950000      -0.47910000       3.43750000
H       -0.86430000       0.85360000       2.47660000
H       -1.22720000      -2.19660000       1.93530000
H       -1.70040000      -1.39450000      -0.48700000
H       -2.60270000       1.15810000       0.97550000
H       -3.83270000       1.61750000      -1.13560000
H       -3.14480000       0.11010000      -1.88660000
H       -4.19230000      -1.29030000      -0.06520000
H       -4.88790000       0.20810000       0.69820000
