18
Properties=species:S:1:pos:R:3 gdb_8549=T pbc="F F F"
O        0.03480000       1.40950000       0.01560000
C        0.02190000       0.01060000       0.00180000
C        0.48480000      -0.71810000      -1.28610000
C       -0.69030000      -1.72060000      -1.13570000
C       -0.44850000      -2.78830000      -0.03990000
C       -0.75880000      -1.74170000       1.05900000
C        0.40390000      -0.74310000       1.30180000
C       -1.32990000      -0.78060000      -0.04810000
H        0.95320000       1.70180000       0.04260000
H        0.32000000      -0.05970000      -2.14440000
H        1.50450000      -1.11790000      -1.32510000
H       -1.19280000      -2.03630000      -2.04980000
H       -1.22800000      -3.55580000      -0.07170000
H        0.52800000      -3.28510000      -0.01420000
H       -1.31740000      -2.07470000       1.93370000
H        1.41940000      -1.14410000       1.39680000
H        0.18540000      -0.10100000       2.16050000
H       -2.31920000      -0.33200000      -0.07470000
