23
Properties=species:S:1:pos:R:3 gdb_94552=T pbc="F F F"
C       -0.87840000       1.14960000       0.19210000
C       -0.25230000      -0.24410000       0.17470000
C        0.73630000      -0.46190000      -1.00980000
C        1.92350000      -0.21600000      -0.04290000
C        0.96390000      -0.47830000       1.14630000
C        1.10000000       0.32760000       2.41920000
C        0.07060000       0.04710000       3.49400000
C        2.41810000       0.85060000       2.81420000
O        1.43280000       1.71760000       2.24630000
H       -0.12030000       1.93540000       0.13650000
H       -1.55380000       1.26500000      -0.66310000
H       -1.46280000       1.32580000       1.10080000
H       -1.04190000      -0.99760000       0.25670000
H        0.71480000      -1.48950000      -1.38350000
H        0.63550000       0.21820000      -1.86000000
H        2.79780000      -0.86470000      -0.13720000
H        2.25130000       0.82660000      -0.05690000
H        0.99220000      -1.53980000       1.42140000
H        0.15600000      -0.98650000       3.84690000
H        0.20970000       0.71900000       4.34460000
H       -0.94560000       0.18500000       3.11200000
H        2.63620000       1.02080000       3.86820000
H        3.28850000       0.66170000       2.18790000
