16
Properties=species:S:1:pos:R:3 gdb_44935=T pbc="F F F"
O        0.01820000       0.00340000      -0.04100000
C       -0.01780000       1.20090000       0.00220000
C       -1.26930000       2.09630000       0.02970000
C       -0.68530000       3.51760000       0.15290000
C        0.63930000       3.41370000      -0.63970000
C        1.20630000       2.15640000       0.01040000
O        1.52990000       2.43690000       1.39370000
C        0.65730000       3.26460000       2.02830000
N       -0.38870000       3.80610000       1.56390000
H       -1.82430000       1.95760000      -0.90630000
H       -1.93120000       1.82440000       0.85530000
H       -1.36030000       4.28800000      -0.22180000
H        0.46760000       3.24860000      -1.70840000
H        1.28020000       4.28890000      -0.51280000
H        2.09800000       1.71210000      -0.42780000
H        0.97820000       3.42720000       3.05470000
