23
Properties=species:S:1:pos:R:3 gdb_59066=T pbc="F F F"
C       -0.74370000       0.80810000       0.13310000
C        0.03260000      -0.50950000       0.28070000
C       -0.89070000      -1.65080000       0.73350000
C        0.72270000      -0.87170000      -1.02290000
C        2.05070000      -0.31250000      -1.46040000
C        2.86230000       0.66430000      -0.63920000
C        1.94710000      -1.78840000      -1.06560000
C        2.54920000      -2.26800000       0.14330000
C        3.06040000      -2.68670000       1.15010000
H       -0.08470000       1.63300000      -0.15440000
H       -1.52170000       0.72000000      -0.63480000
H       -1.23640000       1.07960000       1.07260000
H        0.79530000      -0.37500000       1.05550000
H       -1.66780000      -1.84650000      -0.01530000
H       -0.32570000      -2.57460000       0.88600000
H       -1.39260000      -1.39930000       1.67370000
H        0.01820000      -1.05820000      -1.83220000
H        2.14830000      -0.16160000      -2.53270000
H        2.82220000       0.43830000       0.42830000
H        3.91530000       0.63100000      -0.93840000
H        2.50710000       1.69000000      -0.78610000
H        1.97750000      -2.50140000      -1.88470000
H        3.51220000      -3.05780000       2.03620000
