21
Properties=species:S:1:pos:R:3 gdb_110205=T pbc="F F F"
C       -0.00520000       1.57600000       0.00420000
C       -0.16420000       0.05170000      -0.07500000
C        0.65290000      -0.54670000      -1.21240000
C        2.19020000      -0.77180000      -1.10700000
O        3.08610000       0.26300000      -0.91930000
C        1.92960000      -2.00320000      -0.18110000
C        0.89700000      -2.07630000      -1.35260000
O       -0.13200000      -2.97880000      -1.52980000
C        2.07010000      -1.73880000      -2.32800000
H        1.03870000       1.85010000       0.18380000
H       -0.31590000       2.05440000      -0.93140000
H       -0.61440000       1.99600000       0.81070000
H        0.10470000      -0.39060000       0.88940000
H       -1.21890000      -0.20280000      -0.23960000
H        0.36220000      -0.07780000      -2.16080000
H        3.97480000      -0.10470000      -0.86590000
H        2.70770000      -2.77360000      -0.17600000
H        1.55000000      -1.81630000       0.82300000
H        0.24180000      -3.86490000      -1.58270000
H        1.79850000      -1.28940000      -3.28620000
H        2.85350000      -2.49630000      -2.43160000
