19
Properties=species:S:1:pos:R:3 gdb_81357=T pbc="F F F"
C       -0.10670000       1.52480000       0.01430000
C       -0.05220000       0.00540000      -0.03580000
C        1.17540000      -0.59740000      -0.75920000
O        1.96880000      -0.38380000       0.45830000
C        0.70550000      -0.66730000       1.13620000
C        0.57720000      -2.17350000       0.85690000
O       -0.75690000      -2.63120000       1.05320000
C        0.96020000      -2.12630000      -0.67890000
O       -0.04890000      -2.63990000      -1.50850000
H        0.86980000       1.93980000       0.27720000
H       -0.40520000       1.93500000      -0.95620000
H       -0.83710000       1.86520000       0.75600000
H       -1.02240000      -0.42420000      -0.29680000
H        1.60860000      -0.17260000      -1.66470000
H        0.65200000      -0.31960000       2.16820000
H        1.28490000      -2.75220000       1.45580000
H       -0.72930000      -3.56200000       1.29260000
H        1.89750000      -2.65190000      -0.88530000
H       -0.82300000      -2.75160000      -0.93650000
