17
Properties=species:S:1:pos:R:3 gdb_52809=T pbc="F F F"
C        0.10190000       1.51490000       0.03560000
C        0.07070000       0.06070000       0.07130000
C        0.04210000      -1.14340000       0.11240000
C        0.05150000      -2.58350000       0.10210000
O        1.16070000      -3.17690000      -0.50940000
C       -0.50020000      -3.36350000       1.24370000
C       -1.28670000      -3.35730000      -0.05930000
C       -2.56870000      -2.62560000      -0.14260000
O       -3.47960000      -2.93230000      -0.87340000
H        1.06860000       1.87510000      -0.33270000
H       -0.67660000       1.91630000      -0.62220000
H       -0.05040000       1.93900000       1.03400000
H        1.24040000      -2.80500000      -1.39530000
H        0.01590000      -4.28290000       1.49300000
H       -0.91050000      -2.81140000       2.08170000
H       -1.21290000      -4.23910000      -0.68540000
H       -2.64040000      -1.74290000       0.53180000
