14
Properties=species:S:1:pos:R:3 gdb_129793=T pbc="F F F"
N        0.23160000       1.43520000       0.00660000
C       -0.03770000       0.05250000       0.01180000
C       -1.14630000      -0.77380000      -0.01360000
N       -2.51930000      -0.91770000      -0.05390000
C       -2.74760000      -2.28620000      -0.04740000
N       -1.67140000      -3.02600000      -0.00760000
C       -0.64650000      -2.09710000       0.01440000
N        0.68720000      -2.14580000       0.05530000
N        1.01130000      -0.83760000       0.05230000
H       -0.11210000       1.89420000      -0.83000000
H       -0.16380000       1.91050000       0.81050000
H       -3.22520000      -0.20400000      -0.08200000
H       -3.75880000      -2.66880000      -0.07430000
H        1.97990000      -0.56240000       0.07900000
