17
Properties=species:S:1:pos:R:3 gdb_70856=T pbc="F F F"
O       -0.16260000       1.32420000      -0.08890000
C        0.02640000      -0.05080000      -0.06510000
C        1.09330000      -0.73520000      -0.89980000
C        0.76080000      -2.17160000      -0.53950000
O        1.42140000      -3.24990000      -1.11200000
C       -0.72330000      -2.33500000      -0.29260000
C       -1.21760000      -0.90780000       0.02690000
C       -0.25980000      -0.84160000       1.21070000
C        0.23390000      -2.26790000       0.89170000
H        0.56110000       1.73560000       0.39620000
H        0.97220000      -0.53780000      -1.96970000
H        2.10990000      -0.45090000      -0.59730000
H        2.30460000      -3.29870000      -0.73000000
H       -1.29470000      -3.17180000      -0.66950000
H       -2.21710000      -0.50830000      -0.07320000
H       -0.39950000      -0.38110000       2.17970000
H        0.52350000      -3.04800000       1.58310000
