18
Properties=species:S:1:pos:R:3 gdb_69140=T pbc="F F F"
C       -0.01610000       1.49630000      -0.01810000
C       -0.06060000      -0.01270000       0.01760000
C       -0.57600000      -0.72350000       1.21960000
N        0.87930000      -0.68550000       0.92920000
C        1.44020000      -1.82570000       0.25150000
O        2.16610000      -2.62160000       0.78090000
C        1.02710000      -1.80750000      -1.20450000
C       -0.43010000      -2.14720000      -1.46380000
C       -0.00910000      -0.71410000      -1.33790000
H        0.82410000       1.84490000      -0.62810000
H       -0.93930000       1.90010000      -0.44810000
H        0.10440000       1.90340000       0.98880000
H       -0.87040000      -0.15120000       2.09570000
H       -1.09340000      -1.67130000       1.11740000
H        1.76880000      -2.06300000      -1.95100000
H       -0.65450000      -2.50400000      -2.46330000
H       -1.02200000      -2.62490000      -0.69230000
H       -0.05240000      -0.07700000      -2.21290000
