19
Properties=species:S:1:pos:R:3 gdb_111364=T pbc="F F F"
C       -0.04650000       1.52070000       0.12160000
C        0.16380000       0.00280000       0.11270000
C        0.70550000      -0.52550000      -1.20910000
C        0.92350000      -2.03820000      -1.35830000
N       -0.41180000      -2.67030000      -1.26010000
C        0.04060000      -2.11430000      -2.55030000
C       -0.24260000      -0.60260000      -2.49460000
C       -1.63520000      -0.19800000      -2.37490000
N       -2.73910000       0.13600000      -2.29130000
H        0.88830000       2.05370000      -0.08700000
H       -0.78410000       1.82600000      -0.62660000
H       -0.41020000       1.85700000       1.09700000
H        0.87710000      -0.27460000       0.90030000
H       -0.77190000      -0.51410000       0.34570000
H        1.61060000       0.01890000      -1.49650000
H        1.82300000      -2.59500000      -1.12720000
H       -0.28210000      -3.68020000      -1.30230000
H        0.10050000      -2.72340000      -3.44270000
H        0.21010000      -0.07210000      -3.33540000
