21
Properties=species:S:1:pos:R:3 gdb_40077=T pbc="F F F"
C       -0.37070000       1.33190000       0.18550000
C        1.08880000       0.99300000      -0.01310000
C        0.06490000      -0.10460000       0.02340000
C       -0.04270000      -1.08900000       1.18770000
C       -1.22880000      -1.99440000       0.81780000
C       -2.63190000      -1.35900000       0.90340000
O       -2.69720000      -1.17550000      -0.52590000
C       -1.42580000      -1.83900000      -0.72010000
C       -0.33390000      -0.89430000      -1.22010000
H       -0.68360000       1.66800000       1.16890000
H       -0.90750000       1.79750000      -0.63390000
H        1.54530000       1.23580000      -0.96740000
H        1.75710000       1.09890000       0.83560000
H        0.87130000      -1.69370000       1.25530000
H       -0.17240000      -0.59150000       2.15480000
H       -1.14920000      -3.00390000       1.22200000
H       -3.42360000      -2.02950000       1.26220000
H       -2.69880000      -0.40690000       1.44480000
H       -1.54000000      -2.74430000      -1.32660000
H       -0.68560000      -0.26640000      -2.04400000
H        0.51420000      -1.48860000      -1.58800000
