17
Properties=species:S:1:pos:R:3 gdb_90755=T pbc="F F F"
O        0.33140000       1.27050000      -0.39360000
C        0.09010000      -0.07290000      -0.05180000
C        0.25820000      -0.46560000       1.44630000
C       -1.27890000      -0.70420000       1.54300000
C       -1.41490000      -0.52760000       0.01170000
C       -2.45240000       0.57690000      -0.16340000
O       -2.52140000       1.26220000       1.10440000
C       -2.00110000       0.50630000       2.11900000
O       -2.09120000       0.83690000       3.26500000
H       -0.08770000       1.84270000       0.26000000
H        0.69620000      -0.66080000      -0.74420000
H        0.83990000      -1.37870000       1.59010000
H        0.66650000       0.31090000       2.09880000
H       -1.61280000      -1.61930000       2.03170000
H       -1.63780000      -1.41510000      -0.58090000
H       -2.16590000       1.30860000      -0.92210000
H       -3.44700000       0.18300000      -0.39700000
