16
Properties=species:S:1:pos:R:3 gdb_129575=T pbc="F F F"
N       -0.35560000       1.47120000       0.00600000
C       -0.04760000       0.04120000      -0.04110000
C       -1.36310000      -0.73180000       0.20180000
O       -1.95230000      -0.31300000       1.40600000
C        0.62440000      -0.42470000      -1.30160000
N        0.80040000       0.35120000      -2.33890000
O        1.42480000      -0.48490000      -3.27520000
C        1.55030000      -1.67070000      -2.68000000
N        1.08650000      -1.71750000      -1.47360000
H        0.49260000       2.01660000       0.11810000
H       -0.76250000       1.76370000      -0.87900000
H        0.61480000      -0.19130000       0.80070000
H       -2.03020000      -0.56960000      -0.66380000
H       -1.16110000      -1.80400000       0.27120000
H       -1.85450000       0.65100000       1.40600000
H        2.01920000      -2.45990000      -3.24990000
