14
Properties=species:S:1:pos:R:3 gdb_4363=T pbc="F F F"
N        0.01280000       1.36980000      -0.15090000
C       -0.02510000       0.00210000      -0.05480000
C       -1.22720000      -0.70520000       0.00370000
C       -1.13430000      -2.09720000       0.05170000
N       -2.24230000      -2.89910000       0.15640000
N        0.05290000      -2.73450000       0.03920000
C        1.12200000      -1.94740000      -0.01520000
N        1.17000000      -0.62040000      -0.06140000
H        0.91310000       1.77970000       0.04370000
H       -0.78590000       1.89210000       0.16930000
H       -2.18600000      -0.19820000       0.01140000
H       -3.12730000      -2.53110000      -0.15110000
H       -2.07650000      -3.87260000      -0.04690000
H        2.08450000      -2.45640000      -0.02290000
