17
Properties=species:S:1:pos:R:3 gdb_47772=T pbc="F F F"
O        0.01460000      -0.02160000       0.09090000
C       -0.01260000       1.17900000       0.01260000
C       -1.31110000       1.98330000      -0.04170000
O       -1.29040000       2.96680000      -1.06180000
C       -0.20660000       3.87540000      -0.93230000
C        1.12830000       3.15280000      -1.09540000
C        1.27580000       2.03550000      -0.02870000
C        1.50640000       2.58290000       1.30550000
C        1.67330000       3.03850000       2.40590000
H       -2.13920000       1.30470000      -0.25300000
H       -1.47170000       2.44450000       0.94870000
H       -0.34390000       4.62240000      -1.71840000
H       -0.24810000       4.38810000       0.04200000
H        1.16400000       2.69530000      -2.08990000
H        1.96310000       3.85610000      -1.01500000
H        2.09540000       1.35780000      -0.28860000
H        1.83590000       3.43090000       3.37950000
