18
Properties=species:S:1:pos:R:3 gdb_18480=T pbc="F F F"
C       -0.40600000       1.00080000      -0.00270000
O        0.51350000      -0.05800000       0.21450000
C        0.94760000      -0.63880000      -0.98780000
C        1.62090000      -1.96220000      -0.99000000
C        1.02510000      -2.88160000       0.07870000
C       -0.38390000      -2.71180000      -0.58430000
O       -1.45170000      -2.24200000       0.20060000
C        0.21950000      -1.77450000      -1.64440000
H        0.03570000       1.79160000      -0.62570000
H       -1.32400000       0.64080000      -0.48760000
H       -0.65180000       1.41880000       0.97630000
H        1.36770000       0.08950000      -1.68370000
H        2.57980000      -2.10640000      -1.47290000
H        1.39460000      -3.90760000       0.02330000
H        1.10750000      -2.52770000       1.10970000
H       -0.72470000      -3.64780000      -1.03280000
H       -1.10820000      -1.47800000       0.67870000
H       -0.06060000      -1.74930000      -2.69170000
