21
Properties=species:S:1:pos:R:3 gdb_100200=T pbc="F F F"
C        0.20540000       1.07280000       0.65760000
O        0.55550000      -0.24100000       0.26750000
C        0.84240000      -0.43740000      -1.11380000
C       -0.28440000       0.00540000      -2.04920000
C        2.16110000       0.27990000      -1.43740000
O        2.43240000       0.78970000      -2.49300000
C        1.13060000      -1.92960000      -1.28530000
C        1.80530000      -2.73750000      -0.20460000
C        0.34710000      -2.96170000      -0.51420000
H        0.92120000       1.82370000       0.29250000
H       -0.79740000       1.35590000       0.31290000
H        0.21600000       1.08580000       1.75010000
H       -0.47450000       1.07920000      -1.97900000
H       -0.00280000      -0.20380000      -3.08330000
H       -1.20260000      -0.53810000      -1.81200000
H        2.88410000       0.25240000      -0.59050000
H        1.38710000      -2.18070000      -2.30990000
H        2.52590000      -3.48870000      -0.50770000
H        2.03300000      -2.23310000       0.72630000
H       -0.37000000      -2.59760000       0.21100000
H        0.05590000      -3.86650000      -1.03590000
