21
Properties=species:S:1:pos:R:3 gdb_72129=T pbc="F F F"
C        0.02760000       1.54830000      -0.04330000
C        0.01510000       0.04320000      -0.09130000
C        0.45440000      -0.82050000      -1.28750000
C       -0.28860000      -1.96640000      -0.55260000
C        0.61530000      -2.17110000       0.67920000
C        0.31470000      -0.76890000       1.23780000
O       -1.11440000      -0.87870000       1.51130000
C       -1.25500000      -0.84280000       0.08240000
C       -2.63860000      -0.60610000      -0.44100000
H        1.05150000       1.93730000       0.00160000
H       -0.45090000       1.98020000      -0.92930000
H       -0.50710000       1.91020000       0.84140000
H       -0.05160000      -0.49630000      -2.20230000
H        1.52080000      -0.95910000      -1.49180000
H       -0.67290000      -2.83890000      -1.07880000
H        0.27570000      -2.94070000       1.37540000
H        1.66110000      -2.34780000       0.41200000
H        0.89080000      -0.36420000       2.06990000
H       -3.05310000       0.32670000      -0.04670000
H       -2.63580000      -0.55230000      -1.53400000
H       -3.30210000      -1.42610000      -0.14520000
