18
Properties=species:S:1:pos:R:3 gdb_62585=T pbc="F F F"
C        0.04340000       1.52960000      -0.09790000
C        0.01820000       0.00850000      -0.10300000
C       -1.36530000      -0.53180000       0.23260000
C        0.71130000      -0.74300000      -1.26950000
C        1.28820000      -1.69250000      -0.15050000
C        2.34060000      -0.64820000       0.13890000
N        1.01790000      -0.65640000       0.84910000
C        2.13080000      -0.13900000      -1.25880000
O        2.85000000       0.32540000      -2.09690000
H        1.04490000       1.92690000      -0.28350000
H       -0.62300000       1.92470000      -0.87190000
H       -0.29980000       1.90900000       0.86980000
H       -2.10320000      -0.16670000      -0.48870000
H       -1.38310000      -1.62520000       0.21710000
H       -1.66700000      -0.20120000       1.23160000
H        0.22090000      -0.99990000      -2.20530000
H        1.31900000      -2.76100000       0.00830000
H        3.23660000      -0.71370000       0.74040000
