20
Properties=species:S:1:pos:R:3 gdb_111015=T pbc="F F F"
O       -0.03460000       1.37400000      -0.19470000
C        0.05590000       0.02010000       0.21030000
C       -1.32300000      -0.62120000       0.15150000
N       -1.92710000      -0.53380000      -1.24810000
C       -1.23200000      -1.84970000      -1.53690000
C       -1.48760000      -2.15060000      -0.02900000
O       -0.73340000      -3.02100000       0.75030000
C       -3.02790000      -2.26850000      -0.02680000
C       -3.30720000      -1.03910000      -0.95340000
H       -0.59340000       1.36600000      -0.98370000
H        0.79300000      -0.53100000      -0.39110000
H        0.41730000       0.01080000       1.24360000
H       -1.95920000      -0.14850000       0.90810000
H       -1.72340000      -2.46740000      -2.29450000
H       -0.18640000      -1.69860000      -1.79890000
H       -1.08100000      -3.91330000       0.64990000
H       -3.37320000      -3.21820000      -0.44950000
H       -3.44670000      -2.16320000       0.97770000
H       -3.88660000      -0.25430000      -0.46230000
H       -3.80710000      -1.30550000      -1.88770000
