16
Properties=species:S:1:pos:R:3 gdb_48042=T pbc="F F F"
O       -0.07820000      -0.09820000       0.00260000
C       -0.02040000       1.10970000       0.00720000
C        1.20660000       1.86600000       0.00090000
C        2.22290000       2.51840000      -0.00560000
C        3.44470000       3.30730000      -0.01290000
C        3.18570000       4.82610000      -0.00240000
C        4.50710000       5.61840000      -0.01080000
C        4.28750000       7.06270000      -0.00110000
N        4.09480000       8.20180000       0.00670000
H       -0.93730000       1.73320000       0.01670000
H        4.05460000       3.02500000       0.85610000
H        4.03800000       3.03430000      -0.89630000
H        2.58570000       5.10320000      -0.87390000
H        2.60230000       5.09390000       0.88310000
H        5.11650000       5.35370000       0.86160000
H        5.09990000       5.36300000      -0.89720000
