19
Properties=species:S:1:pos:R:3 gdb_19551=T pbc="F F F"
C        0.04010000       1.52380000      -0.29940000
C       -0.00350000       0.04620000       0.11270000
C       -1.38890000      -0.50240000       0.20300000
C       -1.97650000      -1.85870000       0.08640000
C       -2.87910000      -1.65080000       1.29910000
C       -2.69800000      -0.13350000       1.02960000
C       -3.35740000       0.03000000      -0.34710000
N       -2.27490000      -0.80690000      -0.96100000
H        1.07150000       1.88380000      -0.35870000
H       -0.42610000       1.66420000      -1.27930000
H       -0.49220000       2.15300000       0.42190000
H        0.54960000      -0.55890000      -0.61610000
H        0.50260000      -0.08810000       1.07790000
H       -1.52630000      -2.77190000      -0.28140000
H       -3.90010000      -2.04850000       1.28250000
H       -2.37330000      -1.96900000       2.21460000
H       -2.80670000       0.59660000       1.82990000
H       -4.37810000      -0.34980000      -0.47970000
H       -3.28380000       1.04100000      -0.75540000
