21
Properties=species:S:1:pos:R:3 gdb_109264=T pbc="F F F"
O       -0.15460000       1.41220000      -0.35640000
C       -0.13400000       0.00230000      -0.21800000
C       -1.51230000      -0.50760000       0.05720000
C       -2.62040000       0.22410000       0.19700000
C       -3.84440000      -0.60750000       0.50600000
C       -3.33650000      -2.05080000       0.32520000
C       -3.36640000      -2.63240000      -1.12080000
C       -1.82560000      -2.83130000      -1.07840000
C       -1.77450000      -1.98420000       0.23080000
H        0.74300000       1.70730000      -0.53260000
H        0.26040000      -0.48280000      -1.12870000
H        0.53450000      -0.31030000       0.60510000
H       -2.64370000       1.30410000       0.11770000
H       -4.20890000      -0.41310000       1.52480000
H       -4.68530000      -0.38470000      -0.16480000
H       -3.72910000      -2.74490000       1.07070000
H       -3.96460000      -3.53510000      -1.26680000
H       -3.68240000      -1.89040000      -1.85950000
H       -1.53810000      -3.87260000      -0.90870000
H       -1.25610000      -2.45290000      -1.93210000
H       -1.17940000      -2.41840000       1.04310000
