21
Properties=species:S:1:pos:R:3 gdb_39814=T pbc="F F F"
C       -0.07040000       1.53410000       0.01130000
C        1.25310000       0.78720000      -0.00590000
C       -0.03980000       0.04270000       0.00250000
C       -0.50560000      -0.99680000       1.01650000
C       -2.00300000      -0.83230000       1.31230000
C       -2.80600000      -1.14820000       0.02280000
C       -2.02830000      -0.81750000      -1.27840000
C       -0.52550000      -0.98520000      -1.01390000
O       -0.33810000      -2.02840000      -0.00630000
H       -0.35740000       2.04170000       0.92740000
H       -0.37520000       2.05200000      -0.89330000
H        1.83400000       0.80100000      -0.92300000
H        1.85190000       0.79070000       0.89970000
H        0.10980000      -1.18670000       1.90100000
H       -2.31790000      -1.50710000       2.11510000
H       -2.18480000       0.18980000       1.66560000
H       -3.01140000      -2.22100000       0.01870000
H       -3.77590000      -0.64270000       0.03520000
H       -2.35900000      -1.48320000      -2.08250000
H       -2.21690000       0.20850000      -1.61650000
H        0.07250000      -1.16500000      -1.91240000
