16
Properties=species:S:1:pos:R:3 gdb_25626=T pbc="F F F"
C        0.00480000       1.45450000       0.01900000
C        0.01670000       0.00020000       0.00460000
C        0.01640000      -1.21030000      -0.00900000
C        0.06600000      -2.61200000      -0.01680000
C        1.16580000      -3.44950000       0.14870000
O        2.44980000      -3.06650000       0.35710000
C        0.72720000      -4.79020000       0.06390000
C       -0.63630000      -4.74830000      -0.15240000
N       -1.03090000      -3.44660000      -0.20060000
H        0.63700000       1.87510000      -0.77200000
H       -1.01130000       1.83310000      -0.13930000
H        0.35730000       1.85560000       0.97660000
H        2.47000000      -2.10160000       0.37120000
H        1.34120000      -5.67170000       0.15160000
H       -1.34720000      -5.54950000      -0.27450000
H       -1.96850000      -3.11770000      -0.34600000
