18
Properties=species:S:1:pos:R:3 gdb_51431=T pbc="F F F"
O       -0.13140000      -0.08250000       0.43040000
C       -0.11180000       1.08900000       0.12640000
N        1.00810000       1.80700000      -0.18520000
C        2.32700000       1.24050000      -0.18870000
C        3.31160000       1.44240000      -1.37190000
C        3.37340000       2.97240000      -1.56450000
C        3.54370000       3.35940000      -0.05790000
C        3.52530000       1.92820000       0.51920000
O        4.38850000       1.21330000      -0.41470000
H       -1.02480000       1.71450000       0.06890000
H        0.88620000       2.77880000      -0.42160000
H        2.25040000       0.19220000       0.08920000
H        3.33830000       0.79190000      -2.24530000
H        4.23270000       3.25840000      -2.17300000
H        2.47270000       3.38380000      -2.03130000
H        4.49470000       3.85400000       0.14550000
H        2.73990000       3.99120000       0.33350000
H        3.76950000       1.77180000       1.56930000
