13
Properties=species:S:1:pos:R:3 gdb_25439=T pbc="F F F"
O       -0.22710000       0.03940000       0.00290000
C       -0.02780000       1.22600000       0.00910000
C        1.29460000       1.89440000      -0.00040000
C        1.27770000       3.24730000       0.01030000
O        2.36110000       4.03530000       0.00470000
C        3.58280000       3.42950000      -0.01310000
C        3.74270000       2.10140000      -0.02520000
C        2.59500000       1.17610000      -0.02030000
O        2.72410000      -0.03190000      -0.03150000
H       -0.87750000       1.95120000       0.02330000
H        0.36400000       3.83320000       0.02480000
H        4.37600000       4.16560000      -0.01590000
H        4.73800000       1.67470000      -0.03930000
