21
Properties=species:S:1:pos:R:3 gdb_94088=T pbc="F F F"
O       -0.05420000       1.44120000      -0.01560000
C        0.02190000       0.02270000      -0.00290000
C        0.77190000      -0.50300000       1.22620000
C        0.75040000      -2.03690000       1.29250000
C       -0.69360000      -2.58280000       1.26340000
C       -1.45310000      -2.03630000       0.03490000
C       -1.41140000      -0.50340000      -0.02410000
C       -0.67110000      -4.09470000       1.22590000
O       -1.14320000      -4.82240000       2.06040000
H        0.84270000       1.78920000       0.01840000
H        0.53970000      -0.33720000      -0.91020000
H        1.81000000      -0.14590000       1.21330000
H        0.29990000      -0.07970000       2.12190000
H        1.30720000      -2.44940000       0.43910000
H        1.26350000      -2.38310000       2.19590000
H       -1.21640000      -2.28900000       2.18080000
H       -1.00370000      -2.45230000      -0.87810000
H       -2.49200000      -2.38210000       0.05550000
H       -1.94390000      -0.07830000       0.83600000
H       -1.91920000      -0.14040000      -0.92320000
H       -0.16020000      -4.51440000       0.32450000
