19
Properties=species:S:1:pos:R:3 gdb_126542=T pbc="F F F"
C       -0.47210000       1.56930000      -0.53880000
C       -0.51520000       0.04160000      -0.60300000
C       -0.85470000      -0.58870000       0.76340000
C       -0.89670000      -2.07650000       0.71570000
N       -1.92930000      -2.86320000       0.77800000
C       -1.35760000      -4.11370000       0.65350000
C       -2.14650000      -5.37680000       0.66790000
N       -0.05700000      -4.10180000       0.52230000
O        0.26090000      -2.73530000       0.56310000
H       -0.23210000       1.99590000      -1.51700000
H       -1.43660000       1.98110000      -0.22230000
H        0.28640000       1.91560000       0.17180000
H       -1.26120000      -0.28220000      -1.33790000
H        0.44980000      -0.34860000      -0.94460000
H       -0.10810000      -0.27790000       1.50360000
H       -1.83240000      -0.24420000       1.11010000
H       -2.87910000      -5.37530000      -0.14470000
H       -1.48640000      -6.23810000       0.55560000
H       -2.70020000      -5.46680000       1.60730000
