17
Properties=species:S:1:pos:R:3 gdb_90217=T pbc="F F F"
O        0.16050000       1.26560000      -0.31560000
C        0.06570000      -0.09400000      -0.00980000
C        0.18230000      -0.43820000       1.53750000
C       -1.36580000      -0.45700000       1.60480000
N       -2.13750000       0.83230000       1.48660000
C       -2.77890000      -0.05940000       0.46860000
C       -2.55560000      -1.41990000       1.25960000
N       -1.88160000      -2.06450000       0.08260000
C       -1.40600000      -0.63740000       0.06110000
H       -0.51190000       1.71020000       0.22420000
H        0.74350000      -0.63280000      -0.67800000
H        0.62960000      -1.41910000       1.71900000
H        0.68520000       0.30730000       2.15710000
H       -2.74070000       0.98900000       2.29660000
H       -3.64240000       0.23770000      -0.13410000
H       -3.25550000      -1.96400000       1.90450000
H       -1.13640000      -2.68220000       0.41840000
