23
Properties=species:S:1:pos:R:3 gdb_95940=T pbc="F F F"
C       -0.12770000       1.53330000      -0.05760000
C        0.08080000       0.01920000      -0.02180000
C        0.86330000      -0.54820000      -1.21900000
C        1.22340000      -1.96910000      -0.77160000
C        1.63970000      -1.78970000       0.70060000
C        0.83650000      -0.57190000       1.23910000
C        1.75260000       0.44840000       1.94110000
C       -0.22800000      -0.98580000       2.24220000
O       -0.43170000      -2.10090000       2.64900000
H        0.82270000       2.07540000      -0.07990000
H       -0.68710000       1.81410000      -0.95610000
H       -0.69760000       1.89130000       0.80630000
H       -0.91420000      -0.44970000      -0.04590000
H        0.28390000      -0.51070000      -2.14700000
H        1.77550000       0.04240000      -1.38080000
H        0.33800000      -2.61230000      -0.84000000
H        2.00670000      -2.43130000      -1.37870000
H        1.44610000      -2.67660000       1.30750000
H        2.71150000      -1.57430000       0.76320000
H        2.47060000       0.87770000       1.23610000
H        1.18870000       1.27250000       2.39050000
H        2.32240000      -0.04140000       2.73750000
H       -0.85980000      -0.13480000       2.59420000
