19
Properties=species:S:1:pos:R:3 gdb_11756=T pbc="F F F"
C       -0.27360000       1.30370000       0.05240000
O        0.18440000      -0.03660000       0.12840000
C        0.73370000      -0.49080000      -1.04660000
C       -0.08720000      -0.94370000      -2.23070000
C        0.84570000      -1.91490000      -1.51970000
N        2.25420000      -1.72860000      -1.86650000
C        2.68950000      -2.05950000      -3.21010000
C        2.19720000      -0.29020000      -1.46880000
H        0.54910000       2.00380000      -0.15120000
H       -1.03550000       1.42230000      -0.73030000
H       -0.71170000       1.54620000       1.02290000
H       -1.13730000      -1.10070000      -2.00350000
H        0.11620000      -0.59120000      -3.23860000
H        0.49490000      -2.83940000      -1.07420000
H        2.11900000      -1.55720000      -4.01200000
H        3.74450000      -1.79090000      -3.32720000
H        2.60100000      -3.14040000      -3.36180000
H        2.37270000       0.42730000      -2.28160000
H        2.87280000      -0.07150000      -0.63520000
