22
Properties=species:S:1:pos:R:3 gdb_114382=T pbc="F F F"
C       -0.07720000       1.58070000       0.30000000
C        0.02760000       0.09280000       0.02560000
C       -1.08660000      -0.69350000       0.69920000
C        0.53990000      -0.53870000      -1.21780000
C        1.72760000       0.13880000      -1.89910000
C        1.54280000       1.37800000      -2.75710000
O        2.82690000       1.73640000      -3.25190000
C        2.39800000       0.17460000      -0.50150000
N        1.30010000      -0.66050000       0.11170000
H       -1.03220000       1.96310000      -0.07630000
H       -0.05530000       1.75890000       1.38160000
H        0.71590000       2.17620000      -0.14870000
H       -2.06590000      -0.39730000       0.30720000
H       -0.95480000      -1.76650000       0.54110000
H       -1.08270000      -0.51060000       1.77900000
H        0.02370000      -1.39600000      -1.64390000
H        2.24820000      -0.59740000      -2.51920000
H        0.84640000       1.14180000      -3.57960000
H        1.09740000       2.20340000      -2.18540000
H        2.73600000       2.53670000      -3.77690000
H        3.34230000      -0.36900000      -0.45030000
H        2.53900000       1.15470000      -0.03720000
