13
Properties=species:S:1:pos:R:3 gdb_3466=T pbc="F F F"
O        0.19680000       1.34860000      -0.14910000
C        0.08850000      -0.03020000      -0.07310000
C        0.04950000      -0.64630000       1.38300000
O       -1.33990000      -0.16370000       1.45090000
C       -1.37890000      -0.60780000       0.04750000
C       -1.10010000      -2.09890000       0.15780000
C       -0.12210000      -2.12530000       1.07220000
H       -0.41470000       1.69770000       0.51510000
H        0.76280000      -0.47550000      -0.80710000
H        0.68850000      -0.30570000       2.19640000
H       -2.22290000      -0.22710000      -0.52570000
H       -1.56060000      -2.89320000      -0.41030000
H        0.45230000      -2.94760000       1.47180000
