21
Properties=species:S:1:pos:R:3 gdb_111142=T pbc="F F F"
C        0.43780000       0.98430000       0.61790000
C        0.15590000      -0.52020000       0.70440000
C       -1.31470000      -0.85180000       0.49800000
C       -1.88260000      -0.88030000      -0.94510000
O       -1.09220000      -2.12150000      -1.19790000
C       -1.71140000      -2.30720000       0.14880000
C       -3.06070000      -1.81590000      -0.48920000
C       -4.23450000      -1.32680000       0.33390000
O       -3.57520000      -2.64330000      -1.48850000
H        1.49660000       1.19720000       0.79370000
H        0.17960000       1.38070000      -0.37000000
H       -0.14140000       1.54460000       1.36070000
H        0.75050000      -1.05980000      -0.03740000
H        0.46280000      -0.89100000       1.69110000
H       -1.94140000      -0.35350000       1.24190000
H       -1.86140000      -0.11730000      -1.72540000
H       -1.48280000      -3.23850000       0.67070000
H       -3.94850000      -0.65980000       1.14680000
H       -4.93680000      -0.79980000      -0.31870000
H       -4.76150000      -2.18700000       0.75710000
H       -2.79730000      -2.93320000      -1.98870000
