14
Properties=species:S:1:pos:R:3 gdb_5633=T pbc="F F F"
O       -0.03950000       1.44630000       0.05880000
C        0.01950000       0.03010000      -0.00780000
C       -1.37660000      -0.49860000      -0.00450000
C       -2.53980000       0.20210000       0.05040000
O       -3.61330000      -0.62690000       0.03370000
C       -3.13180000      -1.90500000      -0.03420000
C       -1.77080000      -1.87670000      -0.05960000
O       -0.86200000      -2.88930000      -0.12370000
H        0.86110000       1.78190000       0.05610000
H        0.54240000      -0.30870000      -0.91750000
H        0.57740000      -0.39020000       0.84540000
H       -2.74700000       1.25650000       0.10260000
H       -3.86250000      -2.69570000      -0.05590000
H       -1.32660000      -3.73160000      -0.15290000
