21
Properties=species:S:1:pos:R:3 gdb_88477=T pbc="F F F"
O        0.31450000       1.24390000       0.07690000
C       -0.02300000      -0.09850000      -0.07980000
C       -0.52890000      -0.94710000       1.06180000
C       -1.45310000      -0.58530000      -0.09130000
C       -2.62020000       0.35900000       0.10560000
O       -2.24470000       1.31250000       1.09620000
C       -3.18040000       0.91690000      -1.23960000
C       -4.28410000      -0.17480000      -1.19050000
C       -3.98020000      -0.37230000       0.31980000
H       -0.41330000       1.65800000       0.56210000
H        0.65940000      -0.56890000      -0.78150000
H       -0.18850000      -1.97280000       1.15950000
H       -0.70850000      -0.43380000       2.00000000
H       -1.68200000      -1.37840000      -0.79860000
H       -2.95170000       1.96050000       1.17440000
H       -3.59910000       1.92010000      -1.10260000
H       -2.49940000       0.93800000      -2.09300000
H       -5.29730000       0.13100000      -1.45700000
H       -4.02430000      -1.05420000      -1.78460000
H       -3.94360000      -1.38820000       0.71990000
H       -4.64760000       0.22660000       0.94900000
