14
Properties=species:S:1:pos:R:3 gdb_131884=T pbc="F F F"
C       -0.03950000       1.56860000       0.11290000
C       -0.01850000       0.07690000       0.03190000
C        0.06730000      -0.72160000      -1.08090000
O        0.05930000      -2.03840000      -0.77040000
C       -0.03380000      -2.10090000       0.57440000
C       -0.08450000      -0.85140000       1.11690000
N        0.16020000      -0.39130000      -2.46230000
O        0.16640000       0.81240000      -2.72860000
O        0.22630000      -1.30370000      -3.27590000
H        0.86420000       1.99780000      -0.32830000
H       -0.88120000       1.97980000      -0.45100000
H       -0.11590000       1.89440000       1.15280000
H       -0.05280000      -3.09350000       0.99400000
H       -0.16010000      -0.60730000       2.16520000
