17
Properties=species:S:1:pos:R:3 gdb_124708=T pbc="F F F"
C        0.01030000       1.56160000      -0.03450000
C       -0.00050000       0.03520000       0.03350000
C        0.72920000      -0.51230000       1.26740000
O        2.08450000      -0.12560000       1.13620000
N       -1.37020000      -0.48710000       0.01860000
N       -1.83730000      -1.28460000      -0.93550000
C       -3.08070000      -1.48930000      -0.51650000
N       -3.35600000      -0.84840000       0.64000000
N       -2.25530000      -0.21400000       0.96790000
H        1.04510000       1.90710000      -0.00270000
H       -0.45550000       1.91340000      -0.95860000
H       -0.53160000       1.98710000       0.81420000
H        0.46620000      -0.38900000      -0.85770000
H        0.26630000      -0.10040000       2.17520000
H        0.61690000      -1.60650000       1.29450000
H        2.55060000      -0.37340000       1.93950000
H       -3.79020000      -2.10220000      -1.04800000
