14
Properties=species:S:1:pos:R:3 gdb_16296=T pbc="F F F"
O        0.06980000       1.38890000      -0.12280000
C        0.10350000       0.00280000       0.01480000
C        0.30650000      -0.61180000       1.45530000
C       -1.07400000      -1.24900000       1.32400000
O       -2.00540000      -0.18940000       1.07510000
C       -1.26760000      -0.72410000      -0.04980000
C       -1.97040000      -1.21770000      -1.18080000
C       -2.51690000      -1.62260000      -2.17260000
H       -0.66100000       1.69870000       0.42800000
H        0.82200000      -0.38470000      -0.71010000
H        1.12510000      -1.33430000       1.49050000
H        0.41270000       0.11020000       2.26830000
H       -1.46850000      -2.15680000       1.76470000
H       -3.00910000      -1.98250000      -3.04230000
