21
Properties=species:S:1:pos:R:3 gdb_112600=T pbc="F F F"
C        0.01150000       1.51390000       0.15310000
C       -0.02040000      -0.00440000       0.08760000
C        0.98590000      -0.71630000      -0.88830000
C        1.35840000      -1.72330000       0.22980000
C        2.82740000      -2.02830000       0.43820000
O        2.94070000      -2.84640000       1.59240000
C        0.65400000      -0.80450000       1.26060000
C       -1.41750000      -0.52560000      -0.15030000
O       -2.40370000       0.15660000      -0.26910000
H        1.03070000       1.87050000       0.33090000
H       -0.35270000       1.95510000      -0.77970000
H       -0.63000000       1.88390000       0.95840000
H        0.57870000      -1.12210000      -1.81850000
H        1.81260000      -0.04460000      -1.13940000
H        0.82070000      -2.66950000       0.11450000
H        3.23230000      -2.53210000      -0.45550000
H        3.38380000      -1.08350000       0.56110000
H        3.87270000      -3.02400000       1.74910000
H        1.36160000      -0.17150000       1.80370000
H       -0.00870000      -1.28000000       1.98760000
H       -1.48810000      -1.63800000      -0.21160000
