16
Properties=species:S:1:pos:R:3 gdb_44760=T pbc="F F F"
O       -0.00710000       0.05530000      -0.06190000
C       -0.00980000       1.24880000      -0.00980000
C       -1.18980000       2.23890000       0.04720000
C       -0.35180000       3.52590000       0.03900000
C        0.69510000       3.26980000      -1.07190000
C        1.19350000       2.23000000      -0.01030000
N        0.67800000       3.16610000       1.09170000
C        2.52690000       1.71200000       0.04330000
C        3.64920000       1.28310000       0.07800000
H       -1.85290000       2.12130000      -0.81390000
H       -1.76360000       2.11030000       0.96740000
H       -0.87150000       4.47600000       0.14770000
H        0.37170000       2.91000000      -2.05440000
H        1.41260000       4.08640000      -1.17820000
H        1.35220000       3.93210000       1.14290000
H        4.63620000       0.89240000       0.11400000
