21
Properties=species:S:1:pos:R:3 gdb_99692=T pbc="F F F"
C        0.28660000       1.60790000      -0.28000000
C        0.26210000       0.08010000      -0.22870000
C       -1.14290000      -0.49580000       0.04260000
C       -2.10090000      -0.18090000      -1.01580000
C       -2.86520000       0.07410000      -1.91190000
C       -3.79580000       0.38690000      -2.98760000
C       -1.09230000      -2.01950000       0.32780000
C       -2.42200000      -2.73510000       0.45490000
O       -0.03840000      -2.59060000       0.46830000
H        1.29890000       1.97240000      -0.47900000
H       -0.37170000       1.98980000      -1.06620000
H       -0.04190000       2.04360000       0.67080000
H        0.63230000      -0.33800000      -1.17050000
H        0.92930000      -0.29120000       0.55380000
H       -1.51940000      -0.05420000       0.98180000
H       -4.62960000      -0.32370000      -3.01160000
H       -4.22000000       1.39000000      -2.86870000
H       -3.30190000       0.34940000      -3.96470000
H       -3.10930000      -2.17660000       1.09880000
H       -2.89710000      -2.79980000      -0.52890000
H       -2.26030000      -3.73790000       0.85170000
