19
Properties=species:S:1:pos:R:3 gdb_6189=T pbc="F F F"
C       -0.45790000       1.60380000      -0.06360000
C        0.06510000       0.16680000       0.00880000
C       -1.10660000      -0.82940000      -0.03230000
C        1.05290000      -0.14390000      -1.15580000
N        1.95690000      -1.11610000      -0.57180000
C        2.00100000      -1.10860000       0.79820000
O        2.74770000      -1.76450000       1.49010000
C        0.94100000      -0.10160000       1.25490000
H        0.36110000       2.32920000      -0.01700000
H       -1.00840000       1.77710000      -0.99550000
H       -1.14020000       1.81480000       0.76660000
H       -1.71010000      -0.68820000      -0.93550000
H       -0.74790000      -1.86370000      -0.02290000
H       -1.76190000      -0.69340000       0.83430000
H        0.53460000      -0.55320000      -2.02990000
H        1.58320000       0.76510000      -1.47670000
H        2.65810000      -1.61360000      -1.09740000
H        1.46370000       0.80410000       1.58560000
H        0.38640000      -0.48930000       2.11220000
