22
Properties=species:S:1:pos:R:3 gdb_100126=T pbc="F F F"
C        0.07810000       1.34900000      -0.04950000
N        0.06190000      -0.09750000      -0.09210000
C       -1.06240000      -0.66150000      -0.02480000
O       -1.15200000      -2.00300000      -0.05870000
C       -2.45710000      -2.62900000       0.01930000
C       -3.14050000      -2.31910000       1.35470000
C       -3.32680000      -2.24480000      -1.18170000
C       -2.08250000      -4.11820000      -0.05160000
O       -3.27570000      -4.88130000       0.01380000
H        0.68580000       1.68740000       0.79800000
H        0.55420000       1.74070000      -0.95610000
H       -0.92100000       1.80860000       0.03940000
H       -2.01660000      -0.12450000       0.06320000
H       -3.47400000      -1.27950000       1.41350000
H       -4.01270000      -2.96610000       1.47160000
H       -2.45240000      -2.51020000       2.18360000
H       -2.76820000      -2.38540000      -2.11180000
H       -4.21030000      -2.88650000      -1.20710000
H       -3.65950000      -1.20450000      -1.13090000
H       -1.53510000      -4.29410000      -0.98850000
H       -1.40500000      -4.34580000       0.78350000
H       -3.04120000      -5.81190000      -0.03180000
