19
Properties=species:S:1:pos:R:3 gdb_1174=T pbc="F F F"
C       -0.09110000       1.55050000       0.14040000
C        0.01260000       0.03000000      -0.01680000
C        0.74050000      -0.47930000      -1.29700000
C        0.00680000      -0.01740000      -2.57760000
C        2.20870000       0.00510000      -1.33470000
C        0.73190000      -1.94690000      -1.25550000
C        0.72150000      -3.14890000      -1.21570000
H        0.89180000       2.02830000       0.19150000
H       -0.64780000       2.01340000      -0.67990000
H       -0.61870000       1.79290000       1.06830000
H        0.53210000      -0.39000000       0.85220000
H       -0.99330000      -0.40510000      -0.00910000
H        0.03800000       1.07200000      -2.67210000
H        0.47880000      -0.44750000      -3.46530000
H       -1.04010000      -0.33450000      -2.56450000
H        2.74310000      -0.29570000      -0.42880000
H        2.73160000      -0.42460000      -2.19350000
H        2.25650000       1.09460000      -1.41980000
H        0.71360000      -4.21000000      -1.18350000
