21
Properties=species:S:1:pos:R:3 gdb_104056=T pbc="F F F"
C       -0.46350000       1.30260000       0.18420000
C        0.09840000      -0.11670000       0.04220000
C        0.92810000      -0.56660000       1.23850000
C        2.24110000       0.18640000       1.41040000
O        0.15910000      -0.49350000       2.49780000
C        0.39280000      -1.87720000       2.78820000
C       -0.68720000      -2.81240000       2.22350000
O        0.01120000      -2.90090000       0.95210000
C        1.09920000      -2.09800000       1.43930000
H        0.32720000       2.05910000       0.20450000
H       -1.12370000       1.53920000      -0.65530000
H       -1.04070000       1.39280000       1.10870000
H       -0.71960000      -0.83050000      -0.08860000
H        0.72230000      -0.19080000      -0.85810000
H        2.05360000       1.24040000       1.63170000
H        2.82200000      -0.23000000       2.23960000
H        2.84620000       0.12310000       0.49950000
H        0.78870000      -2.05150000       3.79020000
H       -0.75070000      -3.79680000       2.70420000
H       -1.68420000      -2.36930000       2.13230000
H        2.07780000      -2.54450000       1.25110000
