17
Properties=species:S:1:pos:R:3 gdb_35768=T pbc="F F F"
N       -0.04470000      -1.17480000      -0.33890000
C       -0.00300000      -0.03850000      -0.13550000
C        0.00780000       1.42500000       0.07690000
O       -0.63370000       1.78530000       1.29040000
C        0.22730000       1.88900000       2.43230000
C        1.60620000       2.39450000       2.01930000
C        1.47340000       3.32790000       0.78790000
C        1.44210000       1.98110000       0.02450000
N        2.18580000       1.31100000       1.14380000
H       -0.59550000       1.87830000      -0.71890000
H       -0.27520000       2.58820000       3.10770000
H        0.33050000       0.91560000       2.92850000
H        2.20740000       2.69350000       2.88050000
H        0.61480000       4.00080000       0.71940000
H        2.39910000       3.87250000       0.58990000
H        1.87140000       1.88870000      -0.97470000
H        3.18000000       1.49030000       1.01600000
