20
Properties=species:S:1:pos:R:3 gdb_47430=T pbc="F F F"
O       -0.12910000      -0.02830000      -0.15920000
C       -0.09680000       1.18250000      -0.03630000
C       -1.30310000       2.12240000      -0.00580000
C       -0.73040000       3.46220000       0.47540000
C        0.75270000       3.38510000       0.06580000
N        1.03140000       1.95350000       0.06670000
C        2.38390000       1.48570000      -0.08910000
C        2.83660000       0.10930000       0.31880000
C        2.79940000       0.49130000      -1.14580000
H       -1.70290000       2.18560000      -1.02500000
H       -2.09210000       1.71120000       0.62620000
H       -1.22990000       4.33400000       0.04850000
H       -0.80560000       3.53360000       1.56440000
H        0.92380000       3.81960000      -0.93100000
H        1.41090000       3.90710000       0.76870000
H        3.08190000       2.29170000       0.11050000
H        3.79610000       0.03290000       0.81890000
H        2.07750000      -0.58580000       0.64800000
H        2.01160000       0.03610000      -1.73250000
H        3.72860000       0.67170000      -1.67540000
