21
Properties=species:S:1:pos:R:3 gdb_32739=T pbc="F F F"
C       -0.78240000       0.84500000       0.91960000
C        0.02660000       0.05410000      -0.11280000
N       -0.76320000      -0.80270000      -1.01450000
C       -1.39100000      -1.92540000      -0.44380000
C       -2.69390000      -2.18940000      -0.06030000
C       -3.85790000      -1.24700000      -0.12740000
C       -2.71790000      -3.54360000       0.39900000
C       -1.44740000      -4.05210000       0.29680000
N       -0.64660000      -3.06310000      -0.21950000
H       -0.12050000       1.42340000       1.57340000
H       -1.46490000       1.54840000       0.42900000
H       -1.37770000       0.17110000       1.54260000
H        0.60980000       0.73860000      -0.73980000
H        0.74890000      -0.59070000       0.39980000
H       -1.42870000      -0.25030000      -1.54060000
H       -4.58750000      -1.54160000      -0.89260000
H       -4.39770000      -1.20330000       0.82560000
H       -3.53460000      -0.22740000      -0.36140000
H       -3.58080000      -4.07150000       0.77770000
H       -1.04530000      -5.01930000       0.55110000
H        0.31290000      -3.16150000      -0.50140000
