18
Properties=species:S:1:pos:R:3 gdb_64782=T pbc="F F F"
C        0.00800000       1.55660000      -0.38500000
C       -0.01890000       0.07170000      -0.09240000
C       -1.34940000      -0.47290000       0.43590000
C       -1.80730000       0.18790000       1.65010000
C       -2.18230000       0.74730000       2.65590000
C       -2.60700000       1.37410000       3.78670000
C       -2.98480000       1.93140000       4.78940000
C        0.83520000      -0.83870000      -0.89740000
N        1.15860000      -0.56240000       0.51620000
H        0.97910000       1.85650000      -0.79130000
H       -0.76050000       1.82890000      -1.11720000
H       -0.18080000       2.13590000       0.52440000
H       -2.11620000      -0.37000000      -0.34460000
H       -1.23190000      -1.54520000       0.62840000
H       -3.31660000       2.41920000       5.67180000
H        0.51620000      -1.85780000      -1.10090000
H        1.45400000      -0.39810000      -1.67500000
H        1.92470000       0.10390000       0.57670000
