16
Properties=species:S:1:pos:R:3 gdb_68574=T pbc="F F F"
C        0.01990000       1.55230000       0.10650000
C        0.00610000       0.05860000      -0.04250000
C        0.64690000      -0.69980000      -1.24830000
C       -0.37980000      -1.84550000      -0.97330000
N        0.08360000      -2.61430000       0.20630000
C        0.50430000      -1.88890000       1.15720000
O        0.52790000      -0.53510000       1.18730000
C       -1.27790000      -0.72450000      -0.43690000
O       -2.43990000      -0.44770000      -0.47190000
H        1.03640000       1.91390000       0.28750000
H       -0.36720000       2.02290000      -0.80070000
H       -0.61100000       1.85250000       0.94770000
H        0.46020000      -0.17990000      -2.19040000
H        1.70000000      -0.96790000      -1.14890000
H       -0.71380000      -2.50900000      -1.76810000
H        0.90560000      -2.31540000       2.07280000
