18
Properties=species:S:1:pos:R:3 gdb_111160=T pbc="F F F"
C       -0.45480000       0.54800000      -0.44870000
O        0.73960000       0.66520000       0.31060000
C        1.11230000      -0.31580000       1.21000000
C        0.14610000      -0.97380000       2.25480000
N       -0.42190000      -1.81270000       1.11130000
C        1.09110000      -1.85330000       0.90410000
C        1.24210000      -2.03820000       2.42240000
C        2.26880000      -2.41280000       3.38460000
O        1.11090000      -3.24840000       3.11850000
H       -1.34510000       0.49850000       0.18610000
H       -0.49350000       1.45150000      -1.06400000
H       -0.44910000      -0.33540000      -1.09480000
H        2.05340000       0.03540000       1.63990000
H       -0.48860000      -0.50720000       3.00760000
H       -0.72840000      -2.71560000       1.48480000
H        1.55380000      -2.40800000       0.08830000
H        3.21720000      -2.82430000       3.04340000
H        2.28650000      -1.95820000       4.37360000
