17
Properties=species:S:1:pos:R:3 gdb_116435=T pbc="F F F"
O        0.08300000       1.36530000      -0.16180000
C        0.06170000      -0.04310000      -0.11780000
C       -1.37090000      -0.56040000       0.03660000
O       -2.10510000      -0.05280000      -1.07040000
C       -3.36190000      -0.68730000      -1.19530000
C       -3.13540000      -2.15040000      -1.51420000
O       -2.30740000      -2.78960000      -0.52690000
C       -1.39830000      -2.08310000       0.18140000
O       -0.66450000      -2.65020000       0.94410000
H       -0.52370000       1.62780000      -0.86370000
H        0.50350000      -0.48940000      -1.02250000
H        0.65050000      -0.36280000       0.74320000
H       -1.79050000      -0.15440000       0.97250000
H       -3.95180000      -0.57360000      -0.27190000
H       -3.89860000      -0.19810000      -2.01280000
H       -4.07320000      -2.71270000      -1.53280000
H       -2.64420000      -2.24910000      -2.48880000
