19
Properties=species:S:1:pos:R:3 gdb_66425=T pbc="F F F"
C       -0.00970000       1.51250000       0.03030000
C       -0.00360000       0.01830000       0.00920000
C        0.85630000      -0.96130000      -0.77860000
C        0.89590000      -0.96680000       0.74790000
C       -0.27080000      -2.01630000       0.74730000
O       -0.57460000      -3.06900000       1.57040000
C       -1.17200000      -1.01790000       0.02410000
C       -0.29770000      -2.01300000      -0.76440000
C       -0.70030000      -3.08010000      -1.72700000
H        1.01420000       1.90230000       0.01370000
H       -0.53690000       1.92510000      -0.83810000
H       -0.49780000       1.90010000       0.93270000
H        1.65970000      -0.77470000      -1.48160000
H        1.72900000      -0.77400000       1.41230000
H       -0.99020000      -2.72380000       2.36940000
H       -2.25020000      -0.91540000       0.01960000
H       -0.98270000      -2.66140000      -2.70010000
H        0.11270000      -3.79690000      -1.89270000
H       -1.55850000      -3.63870000      -1.33910000
