20
Properties=species:S:1:pos:R:3 gdb_103256=T pbc="F F F"
C       -0.46790000       1.32410000      -0.15020000
C        0.19820000      -0.04280000       0.06370000
C        0.84460000      -0.60950000      -1.19410000
C        2.09820000       0.11890000      -1.64190000
C        0.76340000      -2.03190000      -1.58570000
C       -0.52830000      -2.73750000      -1.17970000
C       -1.23190000      -1.56850000      -1.88740000
O       -2.36170000      -1.24020000      -2.08050000
N       -0.01170000      -0.96920000      -2.39120000
H        0.25020000       2.08150000      -0.47750000
H       -1.25720000       1.25720000      -0.90400000
H       -0.91770000       1.67640000       0.78240000
H        0.97960000       0.03780000       0.82950000
H       -0.54470000      -0.73880000       0.46350000
H        2.86900000       0.05310000      -0.86630000
H        2.48980000      -0.31380000      -2.56510000
H        1.89190000       1.17560000      -1.83040000
H        1.60160000      -2.53730000      -2.05290000
H       -0.68500000      -3.67280000      -1.72420000
H       -0.73980000      -2.90180000      -0.12090000
