20
Properties=species:S:1:pos:R:3 gdb_85063=T pbc="F F F"
C       -0.29100000       1.48370000      -0.08440000
C        0.01230000       0.00610000       0.07050000
O        0.73410000      -0.44310000      -1.11010000
C        1.57180000      -1.45940000      -0.78790000
O        2.29590000      -1.99040000      -1.58180000
C        1.43680000      -1.76730000       0.71220000
N        2.62160000      -2.30070000       1.36060000
C        0.89050000      -0.43470000       1.26530000
C        2.00330000       0.55200000       1.63290000
H        0.62630000       2.06940000      -0.17890000
H       -0.89880000       1.65190000      -0.97720000
H       -0.84980000       1.84570000       0.78450000
H       -0.93150000      -0.55600000       0.10010000
H        0.64290000      -2.52270000       0.79670000
H        2.83140000      -3.20780000       0.95320000
H        3.42440000      -1.72030000       1.13240000
H        0.26120000      -0.60570000       2.14340000
H        2.63830000       0.79440000       0.77300000
H        1.59020000       1.48910000       2.01490000
H        2.63660000       0.12350000       2.41410000
