20
Properties=species:S:1:pos:R:3 gdb_77636=T pbc="F F F"
C       -0.09020000       1.47910000       0.04640000
N        0.12750000       0.04850000      -0.10560000
C        0.69680000      -0.56540000      -1.28190000
C       -0.05650000      -1.65740000      -1.98000000
C        1.81490000       0.29490000      -1.90830000
C        2.57230000       0.28720000      -0.54820000
C        1.43750000      -0.56770000       0.06310000
C        1.61850000      -1.59610000       1.03480000
C        1.81030000      -2.46530000       1.84500000
H        0.69800000       2.12470000      -0.36440000
H       -1.03280000       1.74010000      -0.44490000
H       -0.19230000       1.70340000       1.11230000
H       -0.78230000      -1.23880000      -2.68790000
H        0.62250000      -2.30620000      -2.54290000
H       -0.60270000      -2.26270000      -1.25270000
H        2.35910000      -0.24190000      -2.68830000
H        1.50740000       1.26590000      -2.30760000
H        3.51130000      -0.26620000      -0.59630000
H        2.75870000       1.25070000      -0.06490000
H        1.96400000      -3.22980000       2.56550000
