18
Properties=species:S:1:pos:R:3 gdb_89789=T pbc="F F F"
C       -0.27110000       1.53460000      -0.08420000
N       -0.19270000       0.09400000       0.02960000
C       -1.36070000      -0.64070000       0.56670000
C       -0.38730000      -1.50490000       1.36440000
C       -0.53840000      -2.42000000       2.48750000
O       -0.23500000      -2.89450000       1.16320000
C        0.72440000      -0.48750000       1.02870000
C        2.00470000      -1.08210000       0.47590000
O        2.98940000      -1.27700000       1.13930000
H        0.69200000       1.93350000      -0.41800000
H       -1.02220000       1.80420000      -0.83340000
H       -0.53910000       2.03330000       0.86610000
H       -2.01480000      -0.02970000       1.20920000
H       -1.96730000      -1.15510000      -0.18580000
H        0.26770000      -2.52010000       3.21260000
H       -1.53390000      -2.66890000       2.85230000
H        0.96190000       0.16410000       1.88390000
H        1.94380000      -1.34870000      -0.60160000
