10
Properties=species:S:1:pos:R:3 gdb_742=T pbc="F F F"
C       -0.02320000       1.50950000      -0.01960000
C       -0.00140000       0.01830000       0.03650000
N       -0.08750000      -0.72790000      -1.03370000
O       -0.03450000      -2.02410000      -0.60010000
N        0.08620000      -2.08880000       0.75810000
C        0.10790000      -0.85080000       1.16300000
H        0.89450000       1.92990000       0.40370000
H       -0.11580000       1.84360000      -1.05410000
H       -0.86480000       1.90980000       0.55450000
H        0.19780000      -0.61150000       2.21160000
