23
Properties=species:S:1:pos:R:3 gdb_84037=T pbc="F F F"
O       -0.13570000       1.48230000      -0.06520000
C       -0.04870000       0.08530000      -0.02000000
C       -0.46690000      -0.65730000       1.23380000
C       -0.89740000       0.07760000       2.48990000
C       -2.17580000      -0.49560000       3.13030000
C       -3.48570000      -0.07200000       2.44510000
C       -3.69730000      -0.53480000       0.99390000
C       -2.69050000       0.03980000      -0.01970000
C       -1.34900000      -0.67120000      -0.00390000
H        0.58800000       1.84200000       0.45830000
H        0.77160000      -0.32800000      -0.60720000
H        0.07280000      -1.58170000       1.42720000
H       -0.07760000       0.03220000       3.21820000
H       -1.04930000       1.14030000       2.26820000
H       -2.10850000      -1.59190000       3.15670000
H       -2.22260000      -0.16910000       4.17690000
H       -4.32380000      -0.44070000       3.05020000
H       -3.55420000       1.02520000       2.47360000
H       -3.67690000      -1.63260000       0.94840000
H       -4.70950000      -0.23790000       0.69180000
H       -3.10830000      -0.03790000      -1.03080000
H       -2.54890000       1.10930000       0.16460000
H       -1.34230000      -1.60570000      -0.56000000
