13
Properties=species:S:1:pos:R:3 gdb_5669=T pbc="F F F"
N       -0.05310000       1.36490000       0.01010000
C        1.26870000       1.82790000      -0.00010000
C        2.14260000       0.76650000      -0.01430000
C        1.33430000      -0.41370000      -0.01290000
C        0.01530000       0.00460000       0.00230000
N       -0.76650000      -1.11940000       0.00370000
C        0.14120000      -2.17730000      -0.01090000
N        1.39350000      -1.79610000      -0.02110000
H       -0.87030000       1.94720000       0.02200000
H        1.45800000       2.88910000       0.00380000
H        3.21850000       0.84120000      -0.02440000
H       -1.76830000      -1.19520000       0.01290000
H       -0.21020000      -3.19860000      -0.01300000
