16
Properties=species:S:1:pos:R:3 gdb_44656=T pbc="F F F"
N       -0.08870000       1.26760000       0.01070000
C       -0.02480000       0.00380000       0.00360000
O        1.12560000      -0.71630000      -0.00710000
C        0.87400000      -2.17180000      -0.01350000
C        0.04790000      -2.46860000       1.22700000
C       -1.08290000      -1.76890000       1.24570000
C       -1.26760000      -0.89660000       0.00610000
C       -1.09760000      -1.75550000      -1.24500000
C        0.03330000      -2.45520000      -1.24720000
H        0.85230000       1.66740000       0.00730000
H        1.86010000      -2.63030000      -0.02180000
H        0.40240000      -3.13760000       1.99990000
H       -1.80180000      -1.74360000       2.05420000
H       -2.16700000      -0.28800000       0.01470000
H       -1.82600000      -1.72150000      -2.04460000
H        0.37850000      -3.11590000      -2.03140000
