19
Properties=species:S:1:pos:R:3 gdb_53451=T pbc="F F F"
C       -0.01500000       1.47500000       0.00400000
C        0.01030000       0.01930000       0.00330000
C        0.03840000      -1.18500000      -0.00910000
C        0.05200000      -2.64030000       0.00910000
C        0.74310000      -3.19560000       1.27490000
O        0.65820000      -4.61070000       1.30200000
C       -0.67590000      -5.04160000       1.24910000
O       -1.32640000      -4.64480000       0.07100000
C       -1.37490000      -3.23200000      -0.03890000
H        0.94260000       1.88940000      -0.32990000
H       -0.79300000       1.85910000      -0.66500000
H       -0.21570000       1.86990000       1.00600000
H        0.59810000      -3.02650000      -0.86060000
H        1.80390000      -2.93730000       1.29110000
H        0.26540000      -2.76260000       2.16910000
H       -0.66180000      -6.13280000       1.25650000
H       -1.22810000      -4.65600000       2.12850000
H       -1.97440000      -2.80100000       0.77970000
H       -1.86670000      -3.00050000      -0.98590000
