22
Properties=species:S:1:pos:R:3 gdb_116956=T pbc="F F F"
C       -0.03620000       1.45420000       0.37460000
C       -0.05550000      -0.06840000       0.22730000
C       -1.43190000      -0.59640000      -0.22690000
C       -1.47560000      -2.04770000      -0.36850000
C       -1.48260000      -3.24740000      -0.47650000
C       -1.53100000      -4.70230000      -0.60390000
C       -2.83240000      -5.30450000      -0.09480000
C       -2.83640000      -6.66350000       0.49760000
N       -3.06200000      -5.47620000       1.34400000
H        0.94770000       1.80810000       0.69710000
H       -0.27320000       1.94870000      -0.57410000
H       -0.77030000       1.79100000       1.11510000
H        0.70230000      -0.38760000      -0.49700000
H        0.20850000      -0.54310000       1.17890000
H       -2.19680000      -0.27540000       0.49330000
H       -1.70270000      -0.12400000      -1.18110000
H       -1.39270000      -4.98760000      -1.65600000
H       -0.69130000      -5.15390000      -0.05650000
H       -3.71600000      -4.96850000      -0.63320000
H       -3.69880000      -7.31350000       0.37980000
H       -1.88570000      -7.18670000       0.57240000
H       -2.21310000      -5.24850000       1.85730000
