18
Properties=species:S:1:pos:R:3 gdb_110917=T pbc="F F F"
C       -0.28230000       0.79640000      -0.24250000
O        0.74460000      -0.18000000      -0.23980000
C        1.02460000      -0.67810000       1.02090000
C        0.19590000      -1.75940000       1.67740000
C       -0.32730000      -2.75140000       0.62540000
N        1.05890000      -2.95470000       0.16640000
C        1.45480000      -3.13130000      -1.12720000
O        0.73710000      -3.54400000      -2.01070000
C        1.61960000      -2.04130000       1.15170000
H        0.00800000       1.68540000       0.33660000
H       -0.44370000       1.08570000      -1.28270000
H       -1.21840000       0.39910000       0.17320000
H        1.42440000       0.05330000       1.72770000
H       -0.14660000      -1.70210000       2.70150000
H       -0.75770000      -3.65950000       1.05540000
H       -0.99090000      -2.35720000      -0.14860000
H        2.53090000      -2.89930000      -1.26360000
H        2.54320000      -2.26660000       1.67170000
