19
Properties=species:S:1:pos:R:3 gdb_26274=T pbc="F F F"
C        0.18540000       1.33250000      -0.44560000
C        0.02580000      -0.06140000       0.17460000
O        0.56130000      -0.08290000       1.49170000
C       -1.41340000      -0.56730000       0.11730000
C       -2.07720000      -0.97890000       1.27380000
C       -3.39240000      -1.43740000       1.21680000
C       -4.06140000      -1.50090000      -0.00120000
C       -3.40230000      -1.10830000      -1.16500000
C       -2.09170000      -0.64660000      -1.10450000
H        1.23090000       1.64660000      -0.38300000
H       -0.12080000       1.35050000      -1.49470000
H       -0.43370000       2.06160000       0.09110000
H        0.65810000      -0.76490000      -0.38260000
H        0.15640000       0.64110000       1.98280000
H       -1.54770000      -0.95800000       2.21880000
H       -3.89060000      -1.75180000       2.12840000
H       -5.08440000      -1.85930000      -0.04690000
H       -3.90990000      -1.16300000      -2.12280000
H       -1.59000000      -0.35310000      -2.02180000
