14
Properties=species:S:1:pos:R:3 gdb_18209=T pbc="F F F"
N        0.12460000      -1.16870000      -0.09210000
C        0.07250000      -0.01640000      -0.04040000
C        0.01910000       1.45260000      -0.05090000
O       -0.63570000       1.90210000       1.12880000
C       -0.06820000       3.14210000       1.56000000
C        1.32270000       3.18940000       0.96670000
N        2.08120000       1.95340000       1.23070000
C        1.38860000       2.12030000      -0.05410000
H       -0.53160000       1.76390000      -0.95340000
H       -0.66190000       3.99420000       1.19660000
H       -0.07990000       3.13760000       2.65370000
H        1.83450000       4.13790000       0.84660000
H        3.07580000       2.12130000       1.10220000
H        1.93800000       2.20660000      -0.98410000
