21
Properties=species:S:1:pos:R:3 gdb_68190=T pbc="F F F"
C        0.02760000       1.52160000       0.12180000
C        0.00840000       0.02620000      -0.02360000
C        0.90930000      -0.76560000      -1.00640000
C        0.69110000      -1.80600000       0.11060000
O        0.65840000      -0.70960000       1.06910000
C       -0.80600000      -2.18680000       0.00180000
C       -1.15460000      -3.10950000      -1.16540000
O       -1.15720000      -2.80850000       1.23010000
C       -1.34720000      -0.71820000      -0.12050000
H        1.05290000       1.88970000       0.21720000
H       -0.43330000       1.99580000      -0.75090000
H       -0.53280000       1.82710000       1.01150000
H        0.56140000      -0.96200000      -2.02340000
H        1.93240000      -0.38720000      -1.00460000
H        1.39450000      -2.60070000       0.35830000
H       -0.65840000      -4.07720000      -1.04240000
H       -2.23640000      -3.28920000      -1.19770000
H       -0.86690000      -2.68950000      -2.13280000
H       -2.09480000      -3.02430000       1.19550000
H       -1.99310000      -0.47230000       0.72560000
H       -1.88010000      -0.51980000      -1.05550000
