17
Properties=species:S:1:pos:R:3 gdb_79571=T pbc="F F F"
C       -0.14050000       1.47840000       0.10870000
C        0.10030000       0.00980000       0.03870000
O       -0.78860000      -0.89780000       0.73450000
C        0.64690000      -0.98050000       0.96020000
C        1.31950000      -1.78120000      -0.18180000
C        0.35020000      -2.20010000      -1.27540000
O       -0.89940000      -2.78230000      -1.13900000
C        0.73860000      -0.75140000      -1.18160000
O        1.42670000      -0.05320000      -2.15770000
H        0.74100000       2.01740000      -0.24990000
H       -0.98980000       1.76470000      -0.52200000
H       -0.35620000       1.78300000       1.13590000
H        0.97970000      -0.90080000       1.98810000
H        2.32630000      -2.17300000      -0.11210000
H        0.89150000      -2.67790000      -2.09120000
H       -1.31960000      -2.31730000      -0.40170000
H        0.86530000       0.00770000      -2.93900000
