18
Properties=species:S:1:pos:R:3 gdb_14713=T pbc="F F F"
C       -0.05640000       1.56340000       0.07700000
C       -0.00120000       0.03490000       0.00780000
C        0.71240000      -0.47810000      -1.24650000
C        0.76260000      -2.02020000      -1.30650000
C        1.43670000      -2.52750000      -2.49100000
C        2.00140000      -2.92870000      -3.48380000
C        2.63610000      -3.38020000      -4.59970000
C        3.19970000      -3.78060000      -5.59000000
H        0.95020000       1.99560000       0.08360000
H       -0.58880000       1.97940000      -0.78530000
H       -0.57060000       1.90250000       0.98140000
H        0.50690000      -0.35550000       0.89960000
H       -1.02090000      -0.37170000       0.03700000
H        0.20760000      -0.10340000      -2.14470000
H        1.73610000      -0.08720000      -1.28170000
H        1.26720000      -2.40380000      -0.40920000
H       -0.26010000      -2.42000000      -1.27150000
H        3.69480000      -4.13240000      -6.46050000
