19
Properties=species:S:1:pos:R:3 gdb_102245=T pbc="F F F"
C       -0.00210000       1.57440000      -0.27980000
C        0.00650000       0.06000000      -0.06980000
C        0.79410000      -0.68810000      -1.16890000
N        2.20030000      -0.32180000      -1.22050000
C        2.74740000       0.27650000      -2.33120000
C        4.25210000       0.46850000      -2.27250000
O        2.07300000       0.61220000      -3.28520000
C        0.65660000      -2.14490000      -0.99880000
N        0.55580000      -3.28370000      -0.83040000
H        1.01220000       1.98240000      -0.26560000
H       -0.45450000       1.83950000      -1.24030000
H       -0.57440000       2.06540000       0.51210000
H        0.43630000      -0.19200000       0.90710000
H       -1.01640000      -0.33190000      -0.06770000
H        0.39500000      -0.41440000      -2.15220000
H        2.80380000      -0.64160000      -0.47980000
H        4.74060000      -0.39180000      -2.74210000
H        4.51440000       1.35900000      -2.84460000
H        4.63030000       0.56240000      -1.25090000
