15
Properties=species:S:1:pos:R:3 gdb_20833=T pbc="F F F"
C       -0.01690000       1.53070000       0.08940000
C       -0.02940000       0.00220000      -0.08310000
C       -1.42450000      -0.55540000      -0.02940000
N       -2.04240000      -0.57430000       1.16570000
C       -3.27310000      -1.05880000       1.15820000
C       -3.85600000      -1.50620000      -0.02770000
N       -3.19740000      -1.45890000      -1.18080000
N       -1.95840000      -0.97590000      -1.18400000
H        1.00950000       1.90780000       0.08220000
H       -0.56460000       2.02020000      -0.72170000
H       -0.48140000       1.81520000       1.03780000
H        0.41520000      -0.27920000      -1.04030000
H        0.55580000      -0.45810000       0.72020000
H       -3.80820000      -1.09620000       2.10490000
H       -4.86290000      -1.90960000      -0.06250000
