18
Properties=species:S:1:pos:R:3 gdb_83992=T pbc="F F F"
O       -0.08500000       1.42540000      -0.39250000
C       -0.03350000       0.08380000      -0.02260000
C       -1.33990000      -0.60830000       0.31800000
C       -2.64440000       0.16080000       0.28950000
C       -3.58920000      -0.33720000      -0.79730000
O       -3.27770000       0.16850000      -2.10720000
C       -2.07060000      -0.00210000      -2.67770000
N       -0.95960000      -0.46250000      -2.28260000
C       -0.61630000      -0.93360000      -0.98080000
H        0.00190000       1.45820000      -1.35440000
H        0.85820000      -0.18270000       0.54070000
H       -1.27480000      -1.38620000       1.07390000
H       -3.15180000       0.06160000       1.25500000
H       -2.45520000       1.22830000       0.13510000
H       -3.60040000      -1.43360000      -0.83490000
H       -4.61110000       0.01080000      -0.62470000
H       -2.13820000       0.36140000      -3.70390000
H       -0.09560000      -1.88630000      -1.02630000
