15
Properties=species:S:1:pos:R:3 gdb_24910=T pbc="F F F"
N       -0.05900000       1.22800000       0.00730000
C       -0.02490000      -0.02930000       0.00070000
C       -1.26320000      -0.95180000       0.00260000
C       -0.58160000      -2.27550000      -0.00780000
C        0.76900000      -2.10770000      -0.01410000
O        1.14920000      -0.77690000      -0.00930000
C        1.41660000      -3.36060000      -0.02400000
C        0.38330000      -4.28510000      -0.02340000
N       -0.82570000      -3.62320000      -0.01340000
H        0.88550000       1.61630000       0.00430000
H       -1.87390000      -0.74200000       0.88830000
H       -1.88330000      -0.73290000      -0.87440000
H        2.47110000      -3.58070000      -0.03070000
H        0.41860000      -5.36220000      -0.02910000
H       -1.72520000      -4.07020000      -0.01090000
