14
Properties=species:S:1:pos:R:3 gdb_127654=T pbc="F F F"
C        0.12140000       1.42270000      -0.05780000
N        0.10240000      -0.02040000      -0.00360000
N        0.16130000      -0.78260000      -1.15260000
C        0.12470000      -2.00880000      -0.75300000
N        0.04310000      -2.09960000       0.62630000
C       -0.01520000      -3.25720000       1.40380000
O        0.00020000      -4.36330000       0.93370000
C        0.02720000      -0.77380000       1.14310000
O       -0.03690000      -0.43100000       2.30190000
H        1.04520000       1.77770000      -0.52260000
H       -0.73420000       1.79720000      -0.62630000
H        0.06540000       1.78160000       0.97090000
H        0.15250000      -2.87730000      -1.38970000
H       -0.07530000      -3.01300000       2.47540000
