25
Properties=species:S:1:pos:R:3 gdb_59056=T pbc="F F F"
C        0.05610000       1.41130000      -0.27390000
C        0.07900000      -0.02860000       0.26340000
C        0.55370000      -0.05940000       1.72500000
C       -1.29190000      -0.67160000       0.13210000
C       -1.83470000      -1.28650000      -1.15670000
C       -1.05420000      -1.34660000      -2.45320000
C       -1.53330000      -2.15430000       0.04990000
C       -0.41600000      -3.17450000       0.05050000
O       -2.64780000      -2.56700000       0.81220000
H        1.04250000       1.87970000      -0.18870000
H       -0.24460000       1.44200000      -1.32550000
H       -0.65360000       2.02550000       0.29280000
H        0.80500000      -0.59420000      -0.33340000
H       -0.13630000       0.49790000       2.36930000
H        0.60830000      -1.08320000       2.10670000
H        1.54490000       0.39540000       1.82740000
H       -2.05210000      -0.16240000       0.72210000
H       -2.90040000      -1.12120000      -1.29720000
H        0.02130000      -1.45760000      -2.29490000
H       -1.38210000      -2.19000000      -3.07190000
H       -1.20300000      -0.43420000      -3.04160000
H        0.47410000      -2.82890000      -0.47940000
H       -0.13130000      -3.41950000       1.07850000
H       -0.74420000      -4.10350000      -0.43360000
H       -3.04470000      -3.32260000       0.36390000
