23
Properties=species:S:1:pos:R:3 gdb_86434=T pbc="F F F"
C        0.04090000       1.55290000       0.00660000
C        0.03510000       0.02210000      -0.01510000
C        0.69030000      -0.54280000      -1.28220000
C        0.55140000      -2.06740000      -1.34830000
O        1.32980000      -2.62980000      -2.40630000
C        0.88720000      -2.70830000      -0.02600000
C        0.98550000      -2.05270000       1.13400000
C        1.36360000      -2.73980000       2.41800000
C        0.72300000      -0.56570000       1.22860000
H        1.06550000       1.94150000      -0.03300000
H       -0.50410000       1.96360000      -0.84960000
H       -0.42600000       1.93990000       0.91900000
H       -1.01180000      -0.31530000      -0.00360000
H        0.26090000      -0.09440000      -2.18440000
H        1.76090000      -0.28890000      -1.27940000
H       -0.48130000      -2.32140000      -1.62640000
H        2.25630000      -2.51680000      -2.16560000
H        1.06550000      -3.78140000      -0.06600000
H        1.57750000      -3.80060000       2.26360000
H        2.25020000      -2.27340000       2.86730000
H        0.56120000      -2.65680000       3.16260000
H        1.67880000      -0.04510000       1.40270000
H        0.11920000      -0.35810000       2.12290000
