19
Properties=species:S:1:pos:R:3 gdb_99315=T pbc="F F F"
N        0.01990000       0.95750000      -0.80600000
C       -0.23000000      -0.07960000       0.17700000
C       -1.58620000      -0.77130000       0.06720000
O       -2.45010000      -0.45950000      -0.71860000
O       -1.69440000      -1.76020000       0.97180000
C       -2.95420000      -2.47450000       1.01510000
C       -2.98250000      -3.62760000       0.04980000
C       -4.27880000      -4.00730000      -0.57160000
N       -3.22140000      -3.39280000      -1.38110000
H       -0.02340000       0.55210000      -1.73680000
H       -0.74220000       1.62940000      -0.77960000
H        0.54640000      -0.85050000       0.11730000
H       -0.15350000       0.33700000       1.18890000
H       -3.03100000      -2.82570000       2.04750000
H       -3.76510000      -1.77140000       0.80620000
H       -2.25110000      -4.40730000       0.25300000
H       -4.48590000      -5.05080000      -0.79110000
H       -5.15670000      -3.41770000      -0.31710000
H       -3.41120000      -2.40350000      -1.52740000
