15
Properties=species:S:1:pos:R:3 gdb_11809=T pbc="F F F"
O        0.53230000       0.85020000      -0.71540000
C        0.12030000      -0.30840000      -0.05750000
C        0.07410000      -0.36480000       1.48520000
O        0.67840000       0.23040000       2.32990000
C       -1.22250000      -1.19770000       1.46600000
C       -1.36950000      -0.73220000       0.00850000
C       -2.47710000       0.02210000      -0.61020000
N       -2.16570000      -1.36540000      -1.02530000
H        0.37270000       1.60010000      -0.13070000
H        0.72110000      -1.14340000      -0.44570000
H       -1.03670000      -2.27310000       1.55770000
H       -1.98910000      -0.90200000       2.18480000
H       -3.42070000       0.13950000      -0.08440000
H       -2.21270000       0.83560000      -1.28100000
H       -1.66390000      -1.35630000      -1.91130000
