20
Properties=species:S:1:pos:R:3 gdb_31714=T pbc="F F F"
C        0.26050000       0.67010000       1.00310000
C       -0.40540000       0.33290000      -0.33340000
C        0.55570000      -0.06020000      -1.40910000
C        1.90590000      -0.16790000      -1.38350000
O        2.33100000      -0.56530000      -2.62530000
C        1.19150000      -0.68050000      -3.35560000
C        1.32260000      -1.09410000      -4.78130000
C        2.09740000      -0.07740000      -5.63690000
N        0.11630000      -0.39450000      -2.69180000
H        0.82080000      -0.18550000       1.39430000
H        0.95740000       1.50830000       0.89900000
H       -0.48790000       0.94870000       1.74980000
H       -1.12960000      -0.48050000      -0.19790000
H       -0.99430000       1.18880000      -0.68720000
H        2.67030000      -0.01920000      -0.64150000
H        1.82580000      -2.06780000      -4.82700000
H        0.30970000      -1.23170000      -5.16660000
H        1.59140000       0.89250000      -5.64450000
H        3.10840000       0.07040000      -5.24760000
H        2.17680000      -0.42930000      -6.66940000
