16
Properties=species:S:1:pos:R:3 gdb_72009=T pbc="F F F"
O       -0.14290000       1.33960000       0.12100000
C        0.01860000      -0.02460000       0.09510000
C        1.12570000      -0.90670000       0.65020000
N        0.52280000      -2.05700000      -0.14070000
C       -0.78580000      -2.27800000       0.60610000
C       -1.25510000      -0.92530000       0.11520000
C       -2.60820000      -0.36570000       0.03120000
O       -3.58500000      -0.91930000       0.48320000
C       -0.20340000      -1.00730000      -1.00110000
H        0.55450000       1.74380000      -0.40780000
H        2.10680000      -0.65740000       0.23530000
H        1.20430000      -1.07680000       1.72830000
H       -1.33690000      -3.10380000       0.15200000
H       -0.67080000      -2.45380000       1.67980000
H       -2.68210000       0.61180000      -0.49150000
H       -0.28390000      -0.99300000      -2.07880000
