19
Properties=species:S:1:pos:R:3 gdb_40053=T pbc="F F F"
C        0.00350000       1.49890000       0.05110000
C        1.31560000       0.72210000       0.01940000
C        0.00240000       0.00880000      -0.04730000
O       -0.40670000      -0.74300000       1.10060000
C       -1.07510000      -1.87900000       0.56550000
C       -0.25640000      -2.22440000      -0.68240000
C       -0.50420000      -0.80220000      -1.23440000
C       -2.04410000      -0.76730000      -1.16460000
O       -2.33750000      -1.49970000       0.04650000
H       -0.29740000       1.92870000       0.99980000
H       -0.27230000       2.08270000      -0.82150000
H        1.93070000       0.77950000      -0.87290000
H        1.86620000       0.64260000       0.95020000
H       -1.21920000      -2.61110000       1.35750000
H        0.79140000      -2.43760000      -0.46630000
H       -0.70200000      -3.02120000      -1.28080000
H       -0.07210000      -0.53830000      -2.19870000
H       -2.44170000       0.24950000      -1.08290000
H       -2.51440000      -1.26950000      -2.01940000
