15
Properties=species:S:1:pos:R:3 gdb_29058=T pbc="F F F"
N        0.00930000       1.32910000       0.00850000
C       -0.01840000      -0.00980000       0.00060000
N       -1.19220000      -0.59030000       0.00410000
C       -1.43570000      -1.91650000      -0.00160000
C       -0.60060000      -3.00590000      -0.01180000
N        0.75470000      -3.05890000      -0.01920000
C        1.56730000      -2.05390000      -0.01850000
C        1.35780000      -0.61020000      -0.01030000
N        2.32740000       0.24220000      -0.01240000
H        0.91410000       1.77820000       0.00570000
H       -0.85890000       1.83630000       0.01610000
H       -2.50040000      -2.15020000       0.00280000
H       -1.08170000      -3.98080000      -0.01440000
H        2.63020000      -2.31540000      -0.02560000
H        3.23290000      -0.23020000      -0.02030000
