13
Properties=species:S:1:pos:R:3 gdb_49129=T pbc="F F F"
O       -0.12890000      -0.01470000       0.00300000
C       -0.03060000       1.18470000       0.00810000
C        1.25190000       1.93360000       0.00050000
C        1.33580000       3.27760000       0.01090000
C        2.75650000       3.73960000       0.00090000
O        3.11670000       4.89050000       0.00600000
C        3.63070000       2.49090000      -0.01910000
C        2.63600000       1.32650000      -0.01970000
O        2.90500000       0.15590000      -0.03240000
H       -0.92740000       1.84380000       0.01980000
H        0.50700000       3.97750000       0.02530000
H        4.27160000       2.46470000      -0.90580000
H        4.28890000       2.44910000       0.85420000
