16
Properties=species:S:1:pos:R:3 gdb_5232=T pbc="F F F"
C        0.00370000       1.51540000       0.15890000
C       -0.58850000       0.24670000      -0.42350000
O       -0.44670000      -0.79390000       0.54560000
C       -0.93190000      -1.98960000       0.16320000
C       -1.54990000      -2.48360000      -0.95790000
N       -1.83080000      -3.82710000      -0.77800000
C       -1.39390000      -4.12910000       0.41580000
N       -0.83290000      -3.04180000       1.03980000
H       -0.08900000       2.33450000      -0.55990000
H       -0.51750000       1.79970000       1.07720000
H        1.06320000       1.37670000       0.39120000
H       -1.65350000       0.37460000      -0.66110000
H       -0.07220000      -0.04860000      -1.34720000
H       -1.80660000      -1.96770000      -1.86820000
H       -1.44630000      -5.09660000       0.89140000
H       -0.42260000      -2.99380000       1.95720000
