18
Properties=species:S:1:pos:R:3 gdb_63311=T pbc="F F F"
C       -0.04360000       1.57220000       0.05850000
C       -0.01610000       0.03910000       0.01640000
C       -1.43320000      -0.55260000      -0.01370000
N        0.77580000      -0.44590000      -1.12000000
C        1.80580000      -1.30510000      -0.84000000
O        2.51700000      -1.87550000      -1.63650000
C        1.85790000      -1.39020000       0.67480000
O        2.11920000      -0.10040000       1.26610000
C        0.77250000      -0.55140000       1.19300000
H        0.97290000       1.96270000       0.13660000
H       -0.50940000       1.97560000      -0.84700000
H       -0.62420000       1.92500000       0.91650000
H       -1.96910000      -0.22090000      -0.90860000
H       -1.39890000      -1.64590000      -0.02470000
H       -2.00790000      -0.22970000       0.86080000
H        0.62000000      -0.12800000      -2.06420000
H        2.29440000      -2.25050000       1.16890000
H        0.26980000      -0.72920000       2.13970000
