19
Properties=species:S:1:pos:R:3 gdb_40736=T pbc="F F F"
C        0.57340000       1.32670000       0.40580000
O        1.41990000       0.18140000       0.22750000
C        0.00570000       0.00060000       0.15050000
C       -0.66040000      -0.82900000       1.23270000
C       -0.19700000      -2.31720000       1.23290000
C        0.46910000      -2.50950000       2.58660000
C        1.66320000      -1.62770000       2.91610000
C        0.27490000      -1.22880000       3.33440000
O       -0.40450000      -0.29250000       2.53260000
H        0.53990000       1.71620000       1.41920000
H        0.61720000       2.06160000      -0.39630000
H       -0.35840000      -0.22400000      -0.85450000
H       -1.74370000      -0.76240000       1.05440000
H       -1.05650000      -2.98680000       1.13760000
H        0.47700000      -2.52070000       0.39530000
H        0.37460000      -3.47210000       3.07500000
H        2.33980000      -1.98240000       3.68680000
H        2.11870000      -1.05910000       2.11300000
H       -0.01750000      -1.16700000       4.37640000
