16
Properties=species:S:1:pos:R:3 gdb_34445=T pbc="F F F"
N       -0.07860000      -1.12170000       0.02920000
C       -0.02300000       0.03220000       0.02660000
C       -0.00660000       1.48010000       0.03530000
N       -0.82270000       2.10610000       1.06160000
C       -0.65810000       3.55270000       0.74590000
C        0.36580000       3.46660000      -0.37800000
C        1.33270000       2.27060000      -0.07720000
N        1.42450000       1.88390000      -1.52850000
C       -0.01220000       2.28210000      -1.32520000
H       -1.78930000       1.80690000       0.99710000
H       -1.59580000       4.01930000       0.42250000
H       -0.28790000       4.10280000       1.61780000
H        0.77640000       4.37910000      -0.81060000
H        2.17730000       2.22220000       0.61000000
H        1.90980000       2.62410000      -2.04210000
H       -0.75650000       2.24310000      -2.12140000
