13
Properties=species:S:1:pos:R:3 gdb_129898=T pbc="F F F"
N       -0.02300000       1.35750000       0.11130000
C       -0.02670000       0.00170000       0.04040000
C       -1.21400000      -0.76490000       0.02700000
N       -1.15440000      -2.07560000      -0.00010000
C        0.08220000      -2.61160000      -0.01210000
C        0.13980000      -4.10450000      -0.03700000
O        1.14800000      -4.76080000      -0.05200000
N        1.22450000      -1.92160000      -0.00830000
N        1.17510000      -0.60460000       0.01390000
H        0.86310000       1.81420000      -0.03920000
H       -0.85480000       1.87580000      -0.11300000
H       -2.19480000      -0.29160000       0.03790000
H       -0.87420000      -4.55770000      -0.04010000
