17
Properties=species:S:1:pos:R:3 gdb_71511=T pbc="F F F"
O       -0.05820000       1.36740000       0.06140000
C        0.03880000      -0.00630000       0.04300000
C        0.68950000      -0.96190000       1.07270000
C        0.04930000      -1.86470000      -0.00930000
C       -1.20770000      -0.93150000      -0.03990000
C       -1.77300000      -0.88630000      -1.45350000
C       -0.44480000      -0.87650000      -2.23400000
O       -0.27760000      -0.83400000      -3.42490000
C        0.58800000      -0.91690000      -1.13690000
H        0.82780000       1.74580000       0.05200000
H        1.78150000      -0.96590000       1.13070000
H        0.23400000      -0.98890000       2.06710000
H        0.05180000      -2.95140000      -0.05260000
H       -1.88720000      -0.95290000       0.81270000
H       -2.38220000      -1.75550000      -1.72100000
H       -2.35500000       0.01550000      -1.66730000
H        1.64460000      -0.91530000      -1.40190000
