16
Properties=species:S:1:pos:R:3 gdb_132559=T pbc="F F F"
C       -0.00770000       1.49870000      -0.03440000
C        0.00540000      -0.00540000       0.00200000
N       -0.04610000      -0.64820000      -1.17120000
C       -0.02350000      -1.95960000      -1.17390000
F       -0.07540000      -2.55130000      -2.37060000
C        0.04920000      -2.75180000      -0.03630000
C        0.09630000      -2.09430000       1.18380000
C        0.07560000      -0.69660000       1.22700000
N        0.18850000      -0.00260000       2.43750000
H        0.86020000       1.91730000       0.48930000
H        0.00340000       1.83780000      -1.07040000
H       -0.90490000       1.91000000       0.44930000
H        0.06360000      -3.83170000      -0.11200000
H        0.15210000      -2.66260000       2.10770000
H       -0.06830000      -0.54590000       3.24980000
H       -0.26820000       0.89810000       2.45100000
