17
Properties=species:S:1:pos:R:3 gdb_23588=T pbc="F F F"
O       -0.11690000       1.34210000       0.00240000
N        0.02120000      -0.05960000      -0.00380000
C       -1.10600000      -0.64010000       0.01900000
C       -1.32240000      -2.11230000       0.02590000
C       -2.59900000      -2.31950000       0.78670000
C       -3.08940000      -0.94760000       1.25020000
C       -2.54560000      -0.15160000       0.03480000
C       -3.08700000      -1.02520000      -1.11880000
N       -2.60800000      -2.37120000      -0.68930000
H        0.80090000       1.63330000      -0.02370000
H       -0.52440000      -2.83590000      -0.06370000
H       -2.82270000      -3.23750000       1.31620000
H       -4.17880000      -0.89210000       1.33800000
H       -2.63870000      -0.63880000       2.19730000
H       -2.70960000       0.92010000       0.00430000
H       -4.17860000      -1.02690000      -1.18980000
H       -2.66150000      -0.77420000      -2.09380000
