17
Properties=species:S:1:pos:R:3 gdb_25013=T pbc="F F F"
N       -0.08660000       1.28820000      -0.12550000
C       -0.00970000       0.02530000      -0.04840000
N       -1.04780000      -0.86970000      -0.20490000
C       -0.58750000      -2.18140000      -0.05070000
C        0.72590000      -2.07580000       0.19760000
O        1.10820000      -0.74030000       0.20520000
C       -1.44330000      -3.36870000      -0.15720000
C       -2.87940000      -3.35300000       0.33030000
C       -2.59390000      -3.42640000      -1.14370000
H        0.82380000       1.71230000       0.02960000
H       -1.98420000      -0.56630000      -0.39910000
H        1.49560000      -2.80310000       0.38230000
H       -0.89650000      -4.29280000      -0.00520000
H       -3.24820000      -4.23980000       0.83280000
H       -3.26430000      -2.42390000       0.73650000
H       -2.78230000      -2.54760000      -1.75090000
H       -2.76530000      -4.36390000      -1.66010000
