14
Properties=species:S:1:pos:R:3 gdb_57232=T pbc="F F F"
C        0.00560000       1.54340000       0.05310000
C       -0.00800000       0.00400000       0.00580000
O        0.71030000      -0.42620000       1.15890000
C       -1.38690000      -0.51230000       0.01350000
C       -2.50590000      -0.94740000       0.04420000
C        0.66900000      -0.47160000      -1.21850000
C        1.24550000      -0.86760000      -2.20320000
C        1.89530000      -1.31390000      -3.31820000
N        2.44750000      -1.69390000      -4.26680000
H        1.04080000       1.89050000       0.06710000
H       -0.50890000       1.95850000      -0.81490000
H       -0.49830000       1.86670000       0.96600000
H        0.63540000      -1.38610000       1.21780000
H       -3.49730000      -1.32980000       0.06750000
