19
Properties=species:S:1:pos:R:3 gdb_83756=T pbc="F F F"
C       -0.03680000       1.50830000      -0.00350000
C       -0.01410000       0.00720000      -0.03840000
C       -0.88660000      -0.85840000       0.85450000
O       -1.53380000      -1.99990000       0.34980000
C       -0.51470000      -2.88450000      -0.13080000
C        0.74960000      -2.02830000      -0.20300000
C        0.58620000      -1.01810000       0.96140000
C        0.52400000      -0.82830000      -1.18700000
O       -0.34090000      -0.97890000      -2.29140000
H        0.94410000       1.92940000      -0.25480000
H       -0.76440000       1.90190000      -0.72200000
H       -0.31380000       1.88140000       0.98810000
H       -1.46050000      -0.35230000       1.62250000
H       -0.39550000      -3.73530000       0.55610000
H       -0.81710000      -3.25420000      -1.11550000
H        1.67910000      -2.58830000      -0.30240000
H        1.21300000      -0.88090000       1.83210000
H        1.49620000      -0.42390000      -1.50320000
H        0.16280000      -1.33390000      -3.03030000
