20
Properties=species:S:1:pos:R:3 gdb_115672=T pbc="F F F"
C       -0.00490000       1.42870000       0.07860000
C        0.04730000      -0.08800000       0.09360000
O        1.10020000      -0.70690000       0.23830000
N       -1.13740000      -0.71310000      -0.07010000
C       -2.50910000      -0.25600000      -0.30520000
C       -2.93140000      -1.74550000      -0.44490000
C       -1.48570000      -2.14880000      -0.03120000
C       -0.69300000      -3.06250000      -0.96050000
O        0.58210000      -3.36830000      -0.46320000
H        1.00800000       1.81210000       0.19540000
H       -0.42610000       1.79760000      -0.86240000
H       -0.63400000       1.80770000       0.89090000
H       -2.95170000       0.26630000       0.55160000
H       -2.63320000       0.36650000      -1.19770000
H       -3.72670000      -2.07950000       0.22050000
H       -3.17590000      -2.02900000      -1.47070000
H       -1.41290000      -2.54680000       0.98860000
H       -1.24320000      -4.00800000      -1.05710000
H       -0.65990000      -2.60120000      -1.96420000
H        0.99080000      -2.52030000      -0.20700000
