17
Properties=species:S:1:pos:R:3 gdb_15791=T pbc="F F F"
C       -0.01490000       1.62470000      -0.18610000
C       -0.00040000       0.09970000      -0.00130000
N       -1.34550000      -0.44810000       0.06480000
C       -1.99520000      -0.68730000       1.23300000
O       -1.53480000      -0.49760000       2.33970000
C        0.76940000      -0.57890000      -1.12350000
C        0.58230000      -1.98300000      -1.49550000
O        0.00890000      -0.93020000      -2.28680000
H        1.00510000       2.02240000      -0.20050000
H       -0.50230000       1.89820000      -1.12750000
H       -0.55540000       2.09590000       0.63810000
H        0.47850000      -0.13690000       0.95450000
H       -1.81090000      -0.61380000      -0.81550000
H       -3.01370000      -1.08920000       1.06210000
H        1.73130000      -0.11650000      -1.34720000
H        1.39630000      -2.52640000      -1.97130000
H       -0.13380000      -2.59050000      -0.94700000
