11
Properties=species:S:1:pos:R:3 gdb_9029=T pbc="F F F"
O       -0.06230000       1.44620000      -0.00860000
C        0.03760000       0.03570000       0.00530000
C        0.67820000      -0.47450000      -1.23310000
N        1.17800000      -0.84620000      -2.20560000
C        0.73040000      -0.48780000       1.18440000
C        1.30150000      -0.88830000       2.17190000
C        1.94690000      -1.34110000       3.27990000
C        2.51910000      -1.74180000       4.26400000
H        0.82860000       1.81090000       0.06070000
H       -0.99940000      -0.32370000       0.00670000
H        3.02400000      -2.09700000       5.12860000
