20
Properties=species:S:1:pos:R:3 gdb_90166=T pbc="F F F"
O        0.37390000       1.26310000      -0.18300000
C        0.10300000      -0.11930000      -0.11750000
C        0.41690000      -0.77060000       1.28260000
C       -1.09730000      -0.96970000       1.48250000
C       -2.08330000      -0.45680000       2.50630000
C       -3.22410000       0.14200000       1.62090000
C       -2.56410000       0.59470000       0.27850000
C       -1.39580000      -0.35010000       0.15360000
N       -1.68310000      -1.76090000       0.39780000
H        1.32880000       1.38210000      -0.20820000
H        0.50720000      -0.64280000      -0.99870000
H        1.04270000      -1.67000000       1.31470000
H        0.83810000      -0.01380000       1.94970000
H       -2.46240000      -1.21360000       3.20040000
H       -1.60100000       0.32720000       3.10200000
H       -3.96020000      -0.63750000       1.41290000
H       -3.74640000       0.96240000       2.12100000
H       -3.27410000       0.56110000      -0.55370000
H       -2.17720000       1.61610000       0.34980000
H       -1.00330000      -2.37790000      -0.04030000
