19
Properties=species:S:1:pos:R:3 gdb_47057=T pbc="F F F"
O       -0.01390000       0.31640000      -1.03350000
C       -0.08890000       1.16830000      -0.18200000
C       -1.36680000       1.99350000       0.01860000
O       -1.31420000       2.79470000       1.18140000
C       -0.24260000       3.71780000       1.13680000
C        0.27600000       4.11290000       2.53620000
C        1.71820000       3.71830000       2.10050000
C        1.14500000       3.08250000       0.80040000
C        1.03670000       1.55150000       0.76440000
H       -1.54090000       2.59300000      -0.89140000
H       -2.21540000       1.31210000       0.12750000
H       -0.50190000       4.56980000       0.49150000
H        0.11860000       5.14900000       2.84130000
H       -0.14240000       3.45420000       3.30010000
H        2.35830000       4.58060000       1.90140000
H        2.25730000       3.03890000       2.76540000
H        1.60040000       3.44030000      -0.12700000
H        0.77090000       1.17790000       1.76230000
H        1.96280000       1.06310000       0.45370000
