13
Properties=species:S:1:pos:R:3 gdb_7237=T pbc="F F F"
N        0.03340000       1.34220000      -0.01600000
C        0.06570000      -0.00910000      -0.00380000
N        1.05520000      -0.82370000      -0.00670000
C       -1.34880000      -0.59740000       0.00910000
O       -2.32680000       0.11290000       0.02570000
N       -1.32600000      -1.97660000       0.00140000
C       -2.40670000      -2.85040000       0.01060000
O       -3.56730000      -2.54570000       0.02550000
H        0.86950000       1.89650000       0.02230000
H       -0.87260000       1.78320000       0.02230000
H        1.96000000      -0.35320000      -0.01500000
H       -0.38100000      -2.35220000      -0.00960000
H       -2.04870000      -3.89910000       0.00210000
