18
Properties=species:S:1:pos:R:3 gdb_10407=T pbc="F F F"
C        0.08250000       1.50800000       0.17900000
C       -0.02020000       0.00390000      -0.08050000
C        0.69080000      -0.46430000      -1.36530000
C        2.24530000      -0.51480000      -1.23330000
O        2.22900000      -1.94390000      -1.07490000
C        0.83900000      -2.01490000      -1.43690000
C        0.16500000       0.18040000      -2.55520000
C       -0.27320000       0.70680000      -3.54400000
H        1.12550000       1.82900000       0.27370000
H       -0.37010000       2.07840000      -0.63690000
H       -0.43050000       1.77500000       1.10760000
H        0.41340000      -0.55400000       0.75830000
H       -1.07460000      -0.29070000      -0.14470000
H        2.78090000      -0.20320000      -2.13780000
H        2.67010000      -0.00600000      -0.36040000
H        0.24680000      -2.58170000      -0.70890000
H        0.69150000      -2.43320000      -2.43970000
H       -0.65670000       1.17110000      -4.41880000
