22
Properties=species:S:1:pos:R:3 gdb_99636=T pbc="F F F"
C       -2.31670000       3.31270000      -0.17800000
C       -1.49700000       2.08400000      -0.57680000
C       -2.26930000       0.74850000      -0.47560000
C       -1.43900000      -0.34540000      -0.98680000
C       -0.73930000      -1.22150000      -1.41970000
N       -2.63310000       0.48820000       0.92420000
C       -3.96900000       0.88230000       1.37130000
C       -3.60990000      -0.55760000       1.25050000
C       -4.27060000      -1.44510000       0.21720000
H       -1.73470000       4.22600000      -0.33570000
H       -3.23120000       3.39710000      -0.77650000
H       -2.60360000       3.27900000       0.87590000
H       -1.14990000       2.18650000      -1.61090000
H       -0.60610000       2.00200000       0.05390000
H       -3.16160000       0.82950000      -1.12230000
H       -0.12700000      -2.00080000      -1.80110000
H       -4.02190000       1.37840000       2.33710000
H       -4.65830000       1.27620000       0.62440000
H       -3.34340000      -1.08410000       2.16600000
H       -4.60630000      -0.88670000      -0.66040000
H       -3.58920000      -2.23050000      -0.12210000
H       -5.15020000      -1.92620000       0.65800000
