16
Properties=species:S:1:pos:R:3 gdb_50980=T pbc="F F F"
O       -0.80150000       0.80990000       0.09500000
C        0.02240000       1.19060000      -0.69180000
C        1.22700000       2.03510000      -0.29350000
C        1.51830000       3.21220000      -1.25390000
N        0.58320000       4.30670000      -1.14470000
C       -0.63420000       4.27300000      -1.74080000
O       -1.08280000       3.30260000      -2.31910000
C        2.91630000       3.73950000      -0.98550000
O        3.15390000       4.87730000      -0.67100000
H       -0.00920000       0.90750000      -1.76370000
H        1.09090000       2.38990000       0.73150000
H        2.09300000       1.35530000      -0.30780000
H        1.50440000       2.81540000      -2.28170000
H        0.96080000       5.17320000      -0.78550000
H       -1.18350000       5.22700000      -1.63900000
H        3.71950000       2.97950000      -1.08150000
