14
Properties=species:S:1:pos:R:3 gdb_25553=T pbc="F F F"
O        0.11020000      -0.14490000       0.25380000
C        0.06100000       0.97010000      -0.18820000
C        1.20080000       1.97670000      -0.06090000
N        1.26020000       2.89800000      -1.16960000
C        1.65710000       2.63790000      -2.48540000
C        1.57380000       3.79800000      -3.14500000
O        1.13610000       4.79030000      -2.29440000
C        0.93900000       4.23830000      -1.04710000
O        0.56500000       4.83780000      -0.07500000
H       -0.83570000       1.36370000      -0.71780000
H        1.01520000       2.58510000       0.83330000
H        2.14460000       1.43990000       0.07520000
H        1.96160000       1.65910000      -2.81450000
H        1.77290000       4.08210000      -4.16270000
