13
Properties=species:S:1:pos:R:3 gdb_11628=T pbc="F F F"
O       -0.02560000      -0.01200000       0.00450000
C       -0.03740000       1.17230000       0.01140000
C       -0.99200000       2.37060000       0.02740000
C       -0.01180000       2.97140000       1.09390000
C        0.95810000       2.38190000       0.00830000
C       -0.03280000       2.98330000      -1.05150000
C        2.39030000       2.40850000      -0.00560000
N        3.54680000       2.41380000      -0.01690000
H       -2.07750000       2.38630000       0.03810000
H       -0.00960000       4.06200000       1.13940000
H        0.01200000       2.51540000       2.08390000
H       -0.02850000       2.53820000      -2.04670000
H       -0.03140000       4.07430000      -1.08500000
