23
Properties=species:S:1:pos:R:3 gdb_58879=T pbc="F F F"
C       -0.05690000       1.56740000       0.47030000
C       -0.01960000       0.10250000       0.00240000
C        0.95670000      -0.71070000       0.86260000
C       -1.42980000      -0.47910000      -0.05490000
C       -2.20090000      -0.87070000       1.19480000
C       -1.83110000      -1.93180000       0.18740000
C       -2.86790000      -2.32690000      -0.86280000
C       -3.12320000      -1.03110000      -1.60360000
C       -2.32930000      -0.04810000      -1.17560000
H        0.94080000       2.01720000       0.43220000
H       -0.72060000       2.17610000      -0.15180000
H       -0.41780000       1.63390000       1.50270000
H        0.36780000       0.09040000      -1.02650000
H        1.05820000      -1.73760000       0.50020000
H        1.95050000      -0.25180000       0.84300000
H        0.63860000      -0.74950000       1.91050000
H       -1.66590000      -0.89440000       2.13930000
H       -3.23600000      -0.55320000       1.27420000
H       -1.09700000      -2.66790000       0.49240000
H       -2.48530000      -3.10470000      -1.53800000
H       -3.78280000      -2.73490000      -0.41290000
H       -3.88170000      -0.93600000      -2.37260000
H       -2.32530000       0.96500000      -1.56340000
