18
Properties=species:S:1:pos:R:3 gdb_46484=T pbc="F F F"
N       -0.04140000       1.25980000       0.33480000
C       -0.00310000       0.03830000      -0.01780000
O        1.18560000      -0.61520000      -0.20400000
C        1.15520000      -1.80680000      -1.00000000
C        0.07730000      -2.76940000      -0.55750000
C        0.10400000      -4.17160000      -1.12530000
C        0.42690000      -3.95890000       0.32510000
C       -1.20720000      -2.07190000      -0.34840000
C       -1.23400000      -0.74900000      -0.15060000
H        0.90940000       1.63030000       0.39710000
H        0.98920000      -1.52610000      -2.04990000
H        2.15330000      -2.24360000      -0.91400000
H       -0.84630000      -4.62690000      -1.38370000
H        0.91470000      -4.42250000      -1.80200000
H        1.45940000      -4.05240000       0.64470000
H       -0.30110000      -4.26640000       1.06720000
H       -2.12410000      -2.65560000      -0.35480000
H       -2.15320000      -0.19610000      -0.00400000
