11
Properties=species:S:1:pos:R:3 gdb_16269=T pbc="F F F"
O       -0.10280000       0.06400000       0.00840000
C       -0.00290000       1.23970000       0.05790000
O       -1.00680000       2.18270000       0.24530000
C       -0.07650000       3.26650000       0.01830000
C        0.93580000       3.28230000       1.09000000
C        1.08820000       2.28970000      -0.09250000
C        2.22670000       2.24780000      -0.94100000
N        3.15410000       2.21500000      -1.63160000
H       -0.38020000       4.06130000      -0.64710000
H        1.66400000       4.08660000       1.06600000
H        0.68600000       2.89320000       2.07110000
