17
Properties=species:S:1:pos:R:3 gdb_51205=T pbc="F F F"
O       -0.62450000       0.68140000       0.67780000
C        0.11920000       0.95200000      -0.22790000
C        1.27910000       1.92280000      -0.13830000
C        1.24510000       2.96880000      -1.21990000
N        0.24820000       4.08860000      -1.29950000
C        1.13210000       4.30650000      -2.49050000
C        2.40800000       3.89340000      -1.69310000
N        2.89710000       2.87530000      -2.67710000
C        1.40410000       2.78890000      -2.77530000
H       -0.00100000       0.47860000      -1.23070000
H        1.28710000       2.38220000       0.85400000
H        2.20650000       1.34810000      -0.27580000
H       -0.66680000       3.73520000      -1.59350000
H        1.00130000       5.12970000      -3.19480000
H        3.05950000       4.51450000      -1.07870000
H        3.28360000       3.33760000      -3.50390000
H        0.88120000       2.10640000      -3.44880000
