20
Properties=species:S:1:pos:R:3 gdb_40279=T pbc="F F F"
C        0.65750000       1.51500000       0.06410000
N        1.46170000       0.29110000       0.10630000
C       -0.01300000       0.17720000       0.01160000
C       -0.58630000      -0.40670000       1.29200000
O       -1.97440000      -0.21630000       1.46290000
C       -2.77730000      -1.14590000       0.76320000
C       -3.03250000      -0.77370000      -0.69770000
C       -1.83030000      -0.62750000      -1.59440000
C       -0.59450000      -0.21760000      -1.29750000
H        0.63400000       2.08670000       0.98840000
H        0.66100000       2.11570000      -0.84170000
H        1.88410000       0.11400000      -0.80200000
H       -0.34270000      -1.48090000       1.32520000
H       -0.09250000       0.07120000       2.14270000
H       -2.32580000      -2.14940000       0.81950000
H       -3.73610000      -1.18110000       1.29230000
H       -3.70450000      -1.53240000      -1.12000000
H       -3.59940000       0.16900000      -0.72240000
H       -2.03080000      -0.82270000      -2.64610000
H        0.10060000      -0.10900000      -2.13110000
