23
Properties=species:S:1:pos:R:3 gdb_114920=T pbc="F F F"
C        0.04550000       1.54350000      -0.00120000
C        0.02590000       0.01200000       0.03010000
C       -1.38260000      -0.57970000      -0.06070000
C       -2.14980000      -0.29620000      -1.38080000
C       -2.97470000      -1.54440000      -1.57300000
C       -2.63480000      -2.53290000      -0.74110000
C       -3.20570000      -3.91350000      -0.66020000
C       -1.44780000      -2.12560000       0.11140000
O       -0.26680000      -2.83040000      -0.29060000
H        1.06740000       1.92710000       0.07970000
H       -0.38090000       1.93390000      -0.93160000
H       -0.53420000       1.96470000       0.82830000
H        0.63960000      -0.38240000      -0.78860000
H        0.50220000      -0.34290000       0.95190000
H       -1.98490000      -0.15930000       0.75570000
H       -2.76570000       0.60810000      -1.31760000
H       -1.46740000      -0.13570000      -2.22930000
H       -3.75300000      -1.61730000      -2.32720000
H       -3.96250000      -4.08850000      -1.42980000
H       -2.41410000      -4.66330000      -0.77160000
H       -3.66820000      -4.09270000       0.31900000
H       -1.56290000      -2.39940000       1.16620000
H       -0.20590000      -2.76090000      -1.25010000
