19
Properties=species:S:1:pos:R:3 gdb_77131=T pbc="F F F"
C       -0.35340000       1.17140000      -0.36260000
C        0.21140000      -0.17620000       0.05490000
C        1.22260000      -0.96010000      -0.87850000
C        2.10590000      -1.27860000       0.36350000
C        1.31960000      -0.20900000       1.12180000
O        1.53770000       0.46780000       2.08430000
C        0.61550000      -2.15300000      -1.59390000
C        0.30340000      -1.98110000      -3.06660000
O        0.36870000      -3.17760000      -0.99700000
H        0.44190000       1.84970000      -0.68770000
H       -1.07380000       1.07070000      -1.18050000
H       -0.86500000       1.64170000       0.48240000
H       -0.58600000      -0.86560000       0.36120000
H        1.70580000      -0.27260000      -1.57710000
H        1.87640000      -2.28400000       0.73330000
H        3.18720000      -1.14860000       0.28880000
H       -0.30200000      -1.08180000      -3.22810000
H        1.23450000      -1.83670000      -3.62750000
H       -0.22080000      -2.85830000      -3.44700000
