16
Properties=species:S:1:pos:R:3 gdb_50403=T pbc="F F F"
O       -0.17600000       0.00220000      -0.34580000
C       -0.06430000       1.16540000      -0.06480000
C        1.28040000       1.89000000       0.06300000
C        1.35570000       2.76160000       1.32680000
C        1.63830000       1.96300000       2.60970000
O        1.26580000       2.38030000       3.69120000
C        2.42480000       0.75750000       2.41360000
C        2.75740000       0.33350000       1.17030000
N        2.39330000       0.95930000       0.00620000
H       -0.95080000       1.82360000       0.08050000
H        1.32400000       2.55310000      -0.81470000
H        2.16910000       3.48790000       1.21200000
H        0.43260000       3.33190000       1.46040000
H        2.76590000       0.21730000       3.28700000
H        3.37680000      -0.54700000       1.02740000
H        2.38130000       0.35720000      -0.80450000
