17
Properties=species:S:1:pos:R:3 gdb_29783=T pbc="F F F"
C       -0.01570000       1.46000000       0.00350000
N       -0.02520000       0.01550000      -0.00450000
C       -0.01070000      -0.79600000      -1.14240000
C        0.07620000      -2.10720000      -0.73580000
N        0.17500000      -3.28200000      -1.50730000
C        0.13780000      -2.09520000       0.69040000
O        0.15160000      -3.17900000       1.55150000
C        0.07340000      -0.78300000       1.09360000
O        0.07520000      -0.24330000       2.33910000
H        0.98070000       1.86680000      -0.21100000
H       -0.71580000       1.83940000      -0.74660000
H       -0.33010000       1.81360000       0.98650000
H       -0.05860000      -0.35760000      -2.12520000
H       -0.15030000      -3.14460000      -2.45620000
H       -0.36120000      -4.03470000      -1.08920000
H        1.00360000      -3.62240000       1.46630000
H        0.05850000      -0.98630000       2.95430000
