20
Properties=species:S:1:pos:R:3 gdb_98289=T pbc="F F F"
C        0.01960000       1.53200000      -0.00350000
C        0.31810000       0.03320000      -0.00240000
C        0.79280000      -0.48870000      -1.34050000
O        1.14070000       0.24250000      -2.24520000
C        0.83290000      -2.00910000      -1.57890000
O        1.33470000      -2.25610000      -2.86420000
C        1.66840000      -2.72570000      -0.52170000
C        2.38260000      -3.97410000      -0.86930000
N        3.13100000      -2.71990000      -0.64210000
H        0.89830000       2.10080000      -0.31470000
H       -0.78940000       1.77090000      -0.69930000
H       -0.27610000       1.86400000       0.99500000
H        1.10560000      -0.20440000       0.72650000
H       -0.55310000      -0.55430000       0.31470000
H       -0.20850000      -2.36930000      -1.49420000
H        1.45930000      -1.37340000      -3.25510000
H        1.30040000      -2.60430000       0.49480000
H        2.52880000      -4.73930000      -0.11250000
H        2.29210000      -4.33130000      -1.88960000
H        3.36210000      -2.33520000      -1.55760000
