18
Properties=species:S:1:pos:R:3 gdb_54319=T pbc="F F F"
N        0.11950000       1.31230000       0.16050000
C        0.19280000      -0.03900000       0.28750000
O        1.16790000      -0.64400000       0.68910000
C       -1.09160000      -0.76640000      -0.08370000
C       -2.30280000      -0.44460000       0.69660000
O       -2.13090000       0.05850000      -0.63420000
C       -0.89050000      -2.11170000      -0.70930000
C       -2.01360000      -2.79360000      -1.44060000
C       -0.84420000      -2.23510000      -2.21290000
H        0.95080000       1.85480000       0.32600000
H       -0.66300000       1.71920000      -0.32490000
H       -3.07040000      -1.20770000       0.80480000
H       -2.25730000       0.30530000       1.48350000
H       -0.19550000      -2.72630000      -0.14930000
H       -2.10810000      -3.86880000      -1.33910000
H       -2.95350000      -2.25950000      -1.52690000
H       -1.02400000      -1.33830000      -2.79550000
H       -0.12410000      -2.92040000      -2.64450000
