14
Properties=species:S:1:pos:R:3 gdb_69031=T pbc="F F F"
O       -0.16880000       1.43730000      -0.01610000
C       -0.04510000       0.07720000      -0.01150000
C       -0.26850000      -0.79290000      -1.23990000
C       -1.15070000      -1.00050000      -0.03660000
N       -0.34380000      -1.81710000       0.92150000
C        0.54840000      -0.74500000       1.14430000
O        1.37420000      -0.55110000       1.98540000
C       -2.55800000      -0.88690000       0.03990000
C       -3.75590000      -0.80350000       0.11710000
H        0.49710000       1.81050000      -0.60480000
H       -0.72580000      -0.24570000      -2.05950000
H        0.42950000      -1.57840000      -1.51260000
H       -0.77820000      -2.30220000       1.69580000
H       -4.81280000      -0.72420000       0.18360000
