15
Properties=species:S:1:pos:R:3 gdb_19126=T pbc="F F F"
C       -0.08080000      -1.19250000       0.06560000
C       -0.04330000       0.00840000       0.05290000
C       -0.04690000       1.45300000       0.02590000
C        0.59210000       2.19630000       1.13360000
O        1.24330000       2.07490000      -0.12920000
C       -1.15550000       2.07910000      -0.78050000
C       -1.01050000       3.45780000      -1.30100000
N       -0.96080000       2.30540000      -2.22070000
H       -0.10360000      -2.25450000       0.07440000
H        0.21980000       3.19010000       1.37560000
H        1.05300000       1.64290000       1.94910000
H       -2.14360000       1.70490000      -0.52370000
H       -1.88930000       4.08810000      -1.40060000
H       -0.08220000       3.97880000      -1.08900000
H        0.01340000       2.11920000      -2.45310000
