18
Properties=species:S:1:pos:R:3 gdb_18931=T pbc="F F F"
O       -0.08460000       1.39370000       0.02020000
C       -0.04050000      -0.02150000       0.05690000
C        0.38070000      -0.65040000       1.40850000
C       -0.61760000       0.02140000       2.38830000
C       -1.65210000      -0.82060000       1.62810000
C       -0.57440000      -1.92540000       1.38150000
C       -1.12310000      -2.13700000      -0.03910000
C       -1.45630000      -0.62510000       0.06050000
H        0.80770000       1.72440000       0.16700000
H        0.55670000      -0.40210000      -0.78350000
H        1.44670000      -0.72860000       1.62750000
H       -0.49590000      -0.34610000       3.41150000
H       -0.68830000       1.11020000       2.37720000
H       -2.65830000      -1.03500000       1.98650000
H       -0.36320000      -2.72920000       2.08660000
H       -0.46280000      -2.46960000      -0.84710000
H       -2.01770000      -2.76600000      -0.01580000
H       -2.19960000      -0.14220000      -0.57200000
