13
Properties=species:S:1:pos:R:3 gdb_24773=T pbc="F F F"
O       -0.02810000      -0.03560000       0.00320000
C       -0.01550000       1.17420000       0.00920000
C       -1.20470000       2.10250000       0.03170000
C       -0.76840000       3.37100000       0.03160000
N        0.64320000       3.38180000       0.01050000
C        1.69720000       4.24130000      -0.00100000
N        2.84460000       3.58950000      -0.02150000
C        2.51320000       2.25090000      -0.02340000
C        1.14720000       2.09730000      -0.00360000
H       -2.22980000       1.76620000       0.04540000
H       -1.31340000       4.30360000       0.04460000
H        1.58130000       5.31490000       0.00620000
H        3.27410000       1.48600000      -0.03870000
