15
Properties=species:S:1:pos:R:3 gdb_49051=T pbc="F F F"
O       -0.77120000       0.82410000      -0.44940000
C        0.13880000       0.98750000       0.32450000
C        1.32100000       1.85440000       0.04440000
C        1.49830000       3.19800000       0.81420000
O        1.77660000       3.90420000      -0.40980000
C        1.56360000       2.72740000      -1.21730000
C        2.88230000       1.98190000      -1.53220000
C        2.70830000       1.19480000      -0.21970000
O        3.35230000       0.38680000       0.37570000
H        0.15830000       0.48170000       1.31470000
H        0.57350000       3.55410000       1.28440000
H        2.31940000       3.24730000       1.53740000
H        0.83280000       2.87330000      -2.01160000
H        2.79770000       1.30990000      -2.39440000
H        3.78430000       2.58950000      -1.63110000
