17
Properties=species:S:1:pos:R:3 gdb_104958=T pbc="F F F"
C       -0.39010000       1.15820000      -0.62610000
C       -0.31950000      -0.20180000       0.08140000
C        0.68300000      -0.23970000       1.21990000
C        1.51480000      -1.47290000       1.44670000
N        2.13790000      -0.25440000       0.95050000
C        0.30910000       0.55510000       2.43010000
O       -0.78490000       1.02890000       2.61870000
C        1.36580000       0.72600000       3.45450000
N        2.13510000       0.86780000       4.30560000
H        0.58340000       1.44930000      -1.03490000
H       -1.10170000       1.11970000      -1.45550000
H       -0.71760000       1.94160000       0.06170000
H       -1.30630000      -0.46080000       0.47830000
H       -0.05070000      -0.98480000      -0.63730000
H        1.81010000      -1.76230000       2.45100000
H        1.32580000      -2.29860000       0.76560000
H        2.28860000      -0.30110000      -0.05460000
