20
Properties=species:S:1:pos:R:3 gdb_37377=T pbc="F F F"
C        0.04310000       1.48040000      -0.14400000
C        1.29140000       0.68040000       0.00610000
C        2.04510000       0.63030000       1.30490000
C        1.30210000       0.59820000       2.62600000
C       -0.20500000       0.39980000       2.53680000
C       -0.32860000      -0.57240000       1.34580000
C        0.81350000      -1.57920000       1.62300000
C        1.94650000      -0.66610000       2.08910000
N       -0.02270000       0.02510000       0.02320000
H       -0.23360000       2.14000000       0.67180000
H       -0.26600000       1.82830000      -1.12610000
H        1.89190000       0.47760000      -0.88060000
H        3.00930000       1.12950000       1.31170000
H        1.72650000       1.13130000       3.46940000
H       -0.57200000      -0.08830000       3.44830000
H       -0.78610000       1.31710000       2.41260000
H       -1.31340000      -1.04120000       1.28260000
H        0.53230000      -2.27590000       2.42030000
H        1.05360000      -2.16010000       0.72750000
H        2.83430000      -1.09240000       2.54090000
