20
Properties=species:S:1:pos:R:3 gdb_62741=T pbc="F F F"
C       -0.07340000       1.54000000       0.01870000
C        0.03080000       0.02290000       0.06880000
C       -1.20180000      -0.65280000      -0.50980000
N        1.25830000      -0.71630000      -0.27770000
C        2.43560000       0.12100000       0.13270000
C        1.95990000       0.05970000       1.59430000
O        2.46690000       0.28490000       2.65680000
C        0.73390000      -0.71050000       1.18130000
C        0.21450000      -1.87870000       1.96760000
H        0.72370000       2.06210000       0.54900000
H       -0.08130000       1.88450000      -1.02190000
H       -1.02000000       1.84980000       0.47280000
H       -1.42120000      -0.22750000      -1.49500000
H       -1.04400000      -1.72430000      -0.63900000
H       -2.07740000      -0.49240000       0.12800000
H        3.36250000      -0.44590000       0.00420000
H        2.53210000       1.08670000      -0.36850000
H       -0.09970000      -1.52980000       2.95720000
H       -0.63880000      -2.36220000       1.48960000
H        0.99870000      -2.62760000       2.11660000
