24
Properties=species:S:1:pos:R:3 gdb_99861=T pbc="F F F"
C        0.05070000       1.59100000       0.18560000
C       -0.04440000       0.07960000      -0.04640000
C        0.65910000      -0.45610000      -1.32990000
C       -0.02400000       0.10120000      -2.60060000
C        2.05460000       0.01960000      -1.30900000
N        3.14860000       0.39410000      -1.28180000
C        0.70460000      -2.02910000      -1.30990000
C       -0.68690000      -2.67720000      -1.25140000
C        1.51170000      -2.62120000      -2.47540000
H        1.09130000       1.92320000       0.24120000
H       -0.44460000       2.16020000      -0.60650000
H       -0.43680000       1.85410000       1.12900000
H        0.38040000      -0.44460000       0.81780000
H       -1.09850000      -0.20930000      -0.10270000
H        0.02370000       1.19180000      -2.62230000
H        0.45730000      -0.26690000      -3.50890000
H       -1.07660000      -0.19340000      -2.62080000
H        1.23040000      -2.29070000      -0.38240000
H       -1.26410000      -2.36410000      -0.37840000
H       -1.27600000      -2.45760000      -2.14780000
H       -0.57750000      -3.76470000      -1.19670000
H        2.50480000      -2.17110000      -2.55420000
H        1.64290000      -3.69740000      -2.32640000
H        0.99800000      -2.48760000      -3.43320000
