16
Properties=species:S:1:pos:R:3 gdb_67392=T pbc="F F F"
C        0.05660000       1.49430000       0.03470000
C       -0.05890000       0.00870000      -0.07110000
C        0.52240000      -0.89800000      -1.08460000
N        0.99130000      -0.97750000       0.35250000
C       -0.04900000      -1.72520000       1.13320000
C       -1.17910000      -0.95390000       0.42630000
O       -1.61660000      -1.71580000      -0.70500000
C       -0.56680000      -1.80240000      -1.58520000
O       -0.60520000      -2.45760000      -2.58430000
H        1.05820000       1.81500000      -0.26510000
H       -0.67430000       1.98980000      -0.61300000
H       -0.11380000       1.83330000       1.06190000
H        1.30110000      -0.59880000      -1.77310000
H       -0.05190000      -2.81270000       1.01260000
H        0.06720000      -1.45880000       2.18610000
H       -2.04990000      -0.59280000       0.96890000
