23
Properties=species:S:1:pos:R:3 gdb_99864=T pbc="F F F"
C        0.07880000       1.58940000       0.18020000
C       -0.00600000       0.07150000       0.00080000
C        0.63380000      -0.46860000      -1.31440000
N        0.02410000       0.07490000      -2.54290000
C        2.05220000      -0.05260000      -1.31160000
N        3.15530000       0.29000000      -1.26890000
C        0.58580000      -2.03630000      -1.36120000
C       -0.85270000      -2.56890000      -1.44910000
C        1.42700000      -2.60330000      -2.51300000
H        1.11750000       1.93130000       0.20950000
H       -0.43090000       2.12000000      -0.63060000
H       -0.40000000       1.88780000       1.11710000
H        0.47130000      -0.42780000       0.85210000
H       -1.05700000      -0.23640000       0.00450000
H       -0.98690000       0.01150000      -2.46680000
H        0.24780000       1.05960000      -2.64260000
H        1.01900000      -2.37930000      -0.41310000
H       -1.33030000      -2.26630000      -2.38690000
H       -0.83700000      -3.66270000      -1.43570000
H       -1.48300000      -2.24440000      -0.61690000
H        2.47960000      -2.32390000      -2.42100000
H        1.36820000      -3.69600000      -2.51870000
H        1.05980000      -2.23100000      -3.47310000
