16
Properties=species:S:1:pos:R:3 gdb_71271=T pbc="F F F"
C       -0.01190000       1.49530000      -0.09130000
C       -0.10650000       0.01280000       0.08630000
O        0.35520000      -0.75750000      -1.10210000
C       -0.76650000      -1.61200000      -0.97180000
C       -0.88290000      -2.11210000       0.47850000
N        0.23800000      -1.89970000       1.34920000
C        0.76010000      -0.62930000       1.19120000
O        1.74480000      -0.16920000       1.71920000
C       -1.43860000      -0.77240000       0.07990000
H        1.04010000       1.78950000      -0.13850000
H       -0.52090000       1.81190000      -1.00480000
H       -0.46600000       2.00370000       0.76530000
H       -1.11670000      -2.14140000      -1.85040000
H       -1.54990000      -2.93260000       0.71080000
H        0.84790000      -2.64740000       1.64310000
H       -2.44430000      -0.40330000       0.22820000
