21
Properties=species:S:1:pos:R:3 gdb_105073=T pbc="F F F"
C       -1.80960000       0.13600000       1.87380000
C       -0.82510000      -0.67530000       1.07330000
O       -0.03600000       0.02460000       0.10740000
C        0.64230000      -0.58000000       1.21960000
C        1.35240000       0.34320000       2.18440000
C        1.66820000       1.70830000       1.59350000
O        2.39290000       2.46940000       2.54920000
C        1.05630000       0.24100000       3.66490000
C        2.35920000      -0.28370000       3.11600000
H       -1.34430000       1.02980000       2.29350000
H       -2.64760000       0.44410000       1.23970000
H       -2.21580000      -0.46150000       2.69700000
H       -1.21520000      -1.62500000       0.69960000
H        1.21880000      -1.46150000       0.93040000
H        2.25140000       1.57410000       0.66870000
H        0.73240000       2.21070000       1.31190000
H        2.55870000       3.33750000       2.17260000
H        1.09260000       1.15590000       4.24420000
H        0.30880000      -0.47750000       3.98320000
H        2.49340000      -1.35980000       3.05910000
H        3.25750000       0.28130000       3.33230000
