17
Properties=species:S:1:pos:R:3 gdb_100523=T pbc="F F F"
N        0.08150000       1.08410000       0.43670000
C        0.09800000      -0.22400000       0.03160000
N        1.17990000      -0.83750000      -0.25690000
C       -1.30120000      -0.81840000       0.00230000
O       -2.27180000      -0.08590000       0.05420000
C       -1.54470000      -2.33370000      -0.05870000
O       -2.90830000      -2.57670000       0.16070000
C       -1.14670000      -2.99470000      -1.41090000
O        0.21350000      -3.37990000      -1.49770000
H        0.92320000       1.61170000       0.27040000
H       -0.79900000       1.56830000       0.36990000
H        1.01410000      -1.80500000      -0.53160000
H       -0.94010000      -2.80450000       0.73380000
H       -3.33040000      -1.70280000       0.19280000
H       -1.81920000      -3.85240000      -1.52470000
H       -1.33140000      -2.31200000      -2.24560000
H        0.34390000      -4.15350000      -0.93900000
