18
Properties=species:S:1:pos:R:3 gdb_90503=T pbc="F F F"
C       -0.08330000       1.39260000       0.07070000
C        0.24090000      -0.09720000      -0.12970000
N        1.20250000      -0.37560000      -1.20300000
H        0.81650000      -0.05970000      -2.08820000
H        2.04720000       0.17360000      -1.05700000
C        1.74190000      -1.82260000       1.17190000
C        2.17890000      -0.65970000       1.58360000
C        3.29350000       0.14950000       2.05970000
O        3.23830000       1.34950000       2.21050000
C        0.74540000      -0.71740000       1.17270000
O       -0.25670000      -0.76380000       2.16690000
H        0.80970000       1.93510000       0.40340000
H       -0.43640000       1.84330000      -0.86250000
H       -0.86780000       1.53190000       0.82220000
H       -0.68420000      -0.62810000      -0.38700000
H        1.92930000      -2.86200000       0.95900000
H        4.22150000      -0.42030000       2.27530000
H       -0.24440000       0.07090000       2.64660000
