19
Properties=species:S:1:pos:R:3 gdb_108013=T pbc="F F F"
O       -0.04550000       1.41090000       0.20150000
C       -0.04480000       0.00530000      -0.01910000
C       -1.46600000      -0.47560000      -0.01340000
C       -2.58230000       0.15010000      -0.88920000
C       -3.54130000      -0.47790000       0.15030000
C       -3.26390000      -2.00110000       0.16470000
C       -2.39800000      -1.95360000       1.40380000
C       -1.73850000      -2.00020000       0.04200000
C       -2.41440000      -0.40320000       1.24900000
H        0.86630000       1.71590000       0.19220000
H        0.42710000      -0.24440000      -0.98510000
H        0.52270000      -0.52160000       0.76600000
H       -2.56370000       1.24140000      -0.82250000
H       -2.66390000      -0.16470000      -1.93490000
H       -4.56070000      -0.12710000       0.30540000
H       -3.87600000      -2.81170000      -0.20870000
H       -2.32930000      -2.62200000       2.25150000
H       -1.18630000      -2.80480000      -0.42740000
H       -2.33970000       0.36070000       2.01790000
