19
Properties=species:S:1:pos:R:3 gdb_100192=T pbc="F F F"
C       -0.27170000       1.57230000      -0.04020000
C       -0.13160000       0.03890000      -0.07570000
C        0.77600000      -0.42470000       1.08850000
O        0.18670000      -0.02290000       2.31560000
C       -1.51360000      -0.58220000       0.11200000
O       -2.01240000      -1.37630000      -0.64610000
C        0.48510000      -0.48610000      -1.36480000
C        0.54460000       0.26040000      -2.62420000
O        1.70310000       0.13400000      -1.79250000
H        0.67870000       2.02950000      -0.32940000
H       -1.04960000       1.92440000      -0.72380000
H       -0.52380000       1.90080000       0.96950000
H        0.89260000      -1.51870000       1.04430000
H        1.76880000       0.02590000       0.94540000
H        0.77830000      -0.26970000       3.03190000
H       -2.04740000      -0.23980000       1.02230000
H        0.49560000      -1.57310000      -1.43680000
H        0.58280000      -0.28870000      -3.56340000
H        0.12870000       1.26270000      -2.69050000
