19
Properties=species:S:1:pos:R:3 gdb_37284=T pbc="F F F"
C       -0.02040000       1.50190000      -0.01520000
C        1.51070000       1.79640000      -0.02930000
C        2.05460000       0.36500000       0.01850000
C        1.16450000      -0.44060000      -0.98340000
C        1.41230000      -1.90970000      -0.63250000
O        2.62190000      -2.16830000       0.10430000
C        1.41610000      -1.85940000       0.82790000
C        1.16990000      -0.36960000       1.07810000
C        0.03250000      -0.02570000       0.03730000
H       -0.52810000       1.93010000       0.85450000
H       -0.53270000       1.86940000      -0.90960000
H        1.83110000       2.32600000      -0.93180000
H        1.83570000       2.38670000       0.83280000
H        3.13290000       0.22630000       0.02050000
H        1.10470000      -0.15660000      -2.03550000
H        1.03210000      -2.72920000      -1.23290000
H        1.03920000      -2.63560000       1.48520000
H        1.11550000      -0.01390000       2.10850000
H       -0.91320000      -0.57240000       0.05860000
