15
Properties=species:S:1:pos:R:3 gdb_49221=T pbc="F F F"
O       -0.76970000       1.33120000       0.33350000
C        0.34160000       0.93180000       0.08300000
C        1.49540000       1.84520000      -0.12120000
N        2.68710000       1.40650000      -0.29860000
C        3.53690000       2.59690000      -0.42600000
C        2.64330000       3.81950000       0.00330000
N        1.30450000       3.21300000      -0.13230000
C        2.91170000       4.29580000       1.35880000
C        3.12620000       4.68460000       2.47590000
H        0.60160000      -0.14050000       0.00400000
H        4.43640000       2.50410000       0.18610000
H        3.84990000       2.70200000      -1.47190000
H        2.75470000       4.65080000      -0.69950000
H        0.53300000       3.58340000       0.40510000
H        3.31810000       5.02800000       3.46270000
