18
Properties=species:S:1:pos:R:3 gdb_51083=T pbc="F F F"
O       -0.20630000       0.01340000       0.02520000
C       -0.05270000       1.21470000      -0.02800000
N        1.15000000       1.85300000      -0.02680000
C        2.41770000       1.17810000      -0.05180000
C        3.05600000       0.55050000      -1.34950000
C        4.33830000       0.64060000      -0.45370000
C        3.74330000       1.99150000       0.07710000
C        3.94260000      -0.30270000       0.69320000
C        2.68300000       0.04600000       0.95870000
H       -0.89690000       1.93270000      -0.07210000
H        1.14800000       2.85190000      -0.16200000
H        2.70790000      -0.44070000      -1.64210000
H        3.06320000       1.24060000      -2.19980000
H        5.34180000       0.57970000      -0.86900000
H        3.81960000       2.81110000      -0.64690000
H        4.03560000       2.31740000       1.07780000
H        4.56160000      -1.06730000       1.13960000
H        1.96440000      -0.33980000       1.66370000
