17
Properties=species:S:1:pos:R:3 gdb_37651=T pbc="F F F"
O       -0.06690000       1.45460000       0.07960000
C        1.39360000       1.46890000      -0.01400000
C        2.00590000       1.30540000       1.36510000
C        1.29090000       0.24890000       2.18990000
C        2.65150000      -0.04180000       1.56660000
C        1.94980000      -0.89940000       0.48270000
C        0.57470000      -0.70400000       1.20900000
C       -0.02100000       0.02720000      -0.05680000
C        1.41390000       0.03680000      -0.63780000
H        1.74990000       2.32560000      -0.58930000
H        2.39140000       2.16440000       1.90100000
H        1.02300000       0.42630000       3.22350000
H        3.61680000      -0.20030000       2.02990000
H        2.33490000      -1.88280000       0.22380000
H        0.03120000      -1.53850000       1.64980000
H       -0.91300000      -0.39260000      -0.52540000
H        1.66930000      -0.08080000      -1.68970000
