17
Properties=species:S:1:pos:R:3 gdb_74297=T pbc="F F F"
C        0.01460000       1.48250000      -0.02620000
C       -0.04420000      -0.00500000      -0.05320000
N       -1.05860000      -0.72190000       0.22630000
C       -0.64930000      -2.13140000       0.05060000
C       -1.54390000      -2.82390000      -0.98970000
C        0.85010000      -2.03180000      -0.39710000
O        1.11300000      -0.61930000      -0.41670000
C       -0.76150000      -2.83380000       1.34250000
N       -0.82770000      -3.40610000       2.34410000
H        0.78220000       1.81260000       0.68040000
H        0.29110000       1.86750000      -1.01240000
H       -0.95380000       1.88340000       0.26950000
H       -1.45760000      -2.29740000      -1.94410000
H       -1.24510000      -3.86700000      -1.12780000
H       -2.58650000      -2.79410000      -0.66740000
H        1.54350000      -2.51030000       0.29670000
H        1.00380000      -2.43240000      -1.40290000
