17
Properties=species:S:1:pos:R:3 gdb_77246=T pbc="F F F"
C       -0.01030000       1.49780000       0.38910000
C        0.05240000       0.01220000       0.13670000
O       -1.13970000      -0.59440000      -0.28550000
C        1.34410000      -0.62380000      -0.35750000
O        2.48440000       0.15850000      -0.50780000
C        0.84230000      -0.91080000       1.03790000
O        1.66780000      -0.37830000       2.05180000
C        1.07360000      -0.05460000       3.22850000
O        1.68940000       0.38550000       4.14870000
H        0.96510000       1.89340000       0.67540000
H       -0.31940000       2.01590000      -0.52580000
H       -0.73950000       1.73060000       1.17160000
H       -1.30810000      -0.31670000      -1.19370000
H        1.24950000      -1.42620000      -1.08650000
H        2.98370000       0.11670000       0.31700000
H        0.42240000      -1.88730000       1.25880000
H       -0.01340000      -0.25250000       3.22110000
