13
Properties=species:S:1:pos:R:3 gdb_18319=T pbc="F F F"
O       -0.11640000      -0.02950000      -0.18130000
C       -0.02680000       1.15650000       0.00420000
N       -1.09720000       2.04610000       0.15560000
C       -0.66810000       3.34570000       0.45750000
C        0.64590000       3.46210000       0.21090000
C        1.84910000       3.73370000       1.08480000
O        2.11370000       2.29130000       1.07230000
C        1.20700000       2.09520000      -0.05750000
H       -2.05410000       1.73090000       0.14350000
H       -1.34340000       4.02830000       0.95660000
H        2.67840000       4.27790000       0.61740000
H        1.67050000       4.11730000       2.09380000
H        1.77090000       1.88520000      -0.97370000
