15
Properties=species:S:1:pos:R:3 gdb_43488=T pbc="F F F"
N        0.10420000       1.12200000       0.51100000
C        0.04920000      -0.04870000       0.05970000
O        1.15920000      -0.76760000      -0.36770000
C        0.82510000      -2.04450000      -0.79360000
O        1.63280000      -2.78170000      -1.26310000
C       -0.65560000      -2.25900000      -0.51480000
N       -0.87040000      -2.72500000       0.87900000
C       -1.73090000      -1.55320000       1.17780000
C       -1.20250000      -0.87600000      -0.11500000
H        1.06550000       1.46580000       0.53590000
H       -1.14740000      -2.82360000      -1.31020000
H       -1.29650000      -3.63840000       0.97240000
H       -2.80780000      -1.75250000       1.11600000
H       -1.51000000      -1.05190000       2.12370000
H       -1.92990000      -0.36850000      -0.74540000
