11
Properties=species:S:1:pos:R:3 gdb_129274=T pbc="F F F"
N       -0.24230000       1.22190000       0.22870000
C       -0.02020000       0.01050000       0.03130000
O        1.14950000      -0.64450000      -0.23700000
N        0.87160000      -2.03450000      -0.41200000
C       -0.39100000      -2.10090000      -0.20650000
O       -1.16060000      -3.18310000      -0.23900000
C       -0.57040000      -4.41250000       0.09510000
O       -1.17020000      -5.41670000      -0.06090000
O       -1.02080000      -0.94750000       0.06040000
H        0.60870000       1.77450000       0.16570000
H        0.44120000      -4.27860000       0.50120000
