16
Properties=species:S:1:pos:R:3 gdb_62540=T pbc="F F F"
C        0.00370000       1.65260000       0.04740000
C       -0.07090000       0.13710000       0.05090000
O       -1.38980000      -0.23010000       0.29630000
C        0.66840000      -0.56950000      -1.18670000
N        1.69440000      -0.98360000      -0.22200000
C        1.04420000      -0.55080000       0.91320000
O        1.27680000      -0.67280000       2.08340000
C       -0.08380000      -1.65260000      -1.79440000
C       -0.73910000      -2.55030000      -2.25500000
H        1.01700000       1.99620000      -0.17630000
H       -0.68750000       2.05850000      -0.69660000
H       -0.28350000       2.03060000       1.03200000
H       -1.47440000      -1.18660000       0.19880000
H        1.03750000       0.12790000      -1.94560000
H        2.46640000      -1.62410000      -0.33810000
H       -1.30210000      -3.34220000      -2.68510000
