18
Properties=species:S:1:pos:R:3 gdb_86152=T pbc="F F F"
C       -0.00960000       1.41230000      -0.04610000
N        0.00000000      -0.03190000      -0.01110000
C       -1.21480000      -0.84080000      -0.03370000
C       -0.72740000      -2.22990000      -0.49750000
O       -0.74760000      -2.27100000      -1.90600000
C        0.72800000      -2.24730000       0.00070000
O        1.56790000      -3.04180000      -0.80160000
C        1.13040000      -0.77360000      -0.09290000
O        2.27820000      -0.39180000      -0.24300000
H        1.02630000       1.75100000      -0.10540000
H       -0.55950000       1.77760000      -0.92170000
H       -0.47620000       1.82820000       0.85480000
H       -1.69140000      -0.88190000       0.95520000
H       -1.93670000      -0.43790000      -0.75120000
H       -1.33890000      -3.03350000      -0.06690000
H        0.04280000      -2.77060000      -2.15960000
H        0.77170000      -2.56440000       1.05430000
H        2.37040000      -2.51020000      -0.92840000
