18
Properties=species:S:1:pos:R:3 gdb_13516=T pbc="F F F"
C       -0.31050000       1.52830000      -0.05390000
C        0.01460000       0.04240000      -0.07580000
C        1.37020000      -0.39980000      -0.67080000
O        1.68430000      -1.18070000       0.49940000
C        0.54780000      -0.68200000       1.20980000
C        0.92060000       0.24910000       2.36300000
C       -0.14030000       0.42370000       3.43430000
O        1.98470000       0.81910000       2.39580000
H        0.50320000       2.11080000       0.38790000
H       -0.46820000       1.89320000      -1.07450000
H       -1.22650000       1.73500000       0.51010000
H       -0.81800000      -0.52020000      -0.50570000
H        1.33530000      -1.01330000      -1.57810000
H        2.08710000       0.41910000      -0.81190000
H       -0.09160000      -1.49470000       1.58050000
H       -0.20160000      -0.48980000       4.03820000
H        0.11540000       1.26430000       4.08020000
H       -1.13030000       0.57590000       2.99010000
