21
Properties=species:S:1:pos:R:3 gdb_89657=T pbc="F F F"
C       -0.14460000       1.56870000       0.03860000
C        0.07300000       0.06040000      -0.00070000
C        1.18150000      -0.52890000      -0.93680000
C        1.79820000      -1.26290000       0.26770000
C        2.17310000      -0.23790000       1.31950000
C        0.73140000      -0.63400000       1.20800000
C       -0.02290000      -1.27480000       2.33630000
C        2.32000000      -2.58520000       0.25640000
C        2.74360000      -3.71290000       0.23410000
H        0.78340000       2.10700000       0.25730000
H       -0.51890000       1.93340000      -0.92430000
H       -0.87800000       1.84300000       0.80480000
H       -0.87910000      -0.43530000      -0.21880000
H        0.78470000      -1.20480000      -1.69580000
H        1.84390000       0.19660000      -1.42140000
H        2.69600000      -0.63990000       2.18100000
H        2.52530000       0.74120000       1.00260000
H       -0.41920000      -0.52130000       3.02800000
H       -0.86880000      -1.86350000       1.96410000
H        0.62410000      -1.94550000       2.91050000
H        3.12570000      -4.70290000       0.21570000
