17
Properties=species:S:1:pos:R:3 gdb_95727=T pbc="F F F"
O       -0.37570000       1.32000000      -0.80960000
C       -0.07560000       0.22250000       0.03570000
C       -1.37310000      -0.57850000       0.15620000
C       -1.19830000      -1.95150000       0.78930000
O       -0.29800000      -2.84540000       0.09790000
C       -0.02130000      -2.68570000      -1.22510000
O       -0.23660000      -3.52860000      -2.04080000
O        0.60270000      -1.53220000      -1.55640000
C        1.05220000      -0.66160000      -0.51140000
H        0.39510000       1.89440000      -0.85670000
H        0.24030000       0.57380000       1.03250000
H       -2.10050000      -0.01610000       0.74930000
H       -1.79740000      -0.67560000      -0.84870000
H       -0.79830000      -1.87180000       1.80540000
H       -2.16920000      -2.45530000       0.84750000
H        1.83250000      -0.04650000      -0.96850000
H        1.49880000      -1.25180000       0.29450000
