13
Properties=species:S:1:pos:R:3 gdb_131024=T pbc="F F F"
O       -0.06400000       0.00110000       0.00030000
C       -0.00150000       1.19480000       0.00840000
N        1.20170000       1.92810000       0.00020000
N        2.41220000       1.31920000      -0.01800000
C        3.28790000       2.30700000      -0.02060000
C        2.66680000       3.58030000      -0.00420000
C        1.31620000       3.31470000       0.00910000
C        0.20840000       4.18600000       0.02810000
C       -0.72680000       4.94450000       0.04410000
H       -0.86690000       1.87670000       0.02320000
H        4.34490000       2.08290000      -0.03420000
H        3.12860000       4.55370000      -0.00220000
H       -1.55160000       5.61420000       0.05740000
