15
Properties=species:S:1:pos:R:3 gdb_55575=T pbc="F F F"
N       -0.39170000       0.49010000      -1.39370000
C       -0.21940000      -0.04920000      -0.12920000
O        0.31550000       0.52890000       0.78050000
N       -0.81240000      -1.32710000      -0.03460000
C       -0.68850000      -2.21570000       1.01750000
O        0.02880000      -2.08300000       1.97400000
C       -1.57720000      -3.47980000       0.88870000
C       -2.34470000      -3.63290000      -0.33710000
C       -2.96740000      -3.72770000      -1.36220000
H        0.13540000       1.33860000      -1.53480000
H       -0.41260000      -0.13040000      -2.18860000
H       -1.44810000      -1.60600000      -0.76970000
H       -0.90860000      -4.33410000       1.03870000
H       -2.24450000      -3.46400000       1.75840000
H       -3.52960000      -3.83660000      -2.25700000
