19
Properties=species:S:1:pos:R:3 gdb_52244=T pbc="F F F"
O       -0.28460000      -0.04420000       0.02020000
C       -0.00240000       1.12490000       0.01080000
C        1.34880000       1.68080000      -0.40860000
N        1.19480000       2.97880000      -1.04610000
C        2.41560000       3.74050000      -1.19720000
C        3.56030000       3.37680000      -2.20710000
N        3.53650000       4.76150000      -2.79960000
C        2.20010000       4.89560000      -3.39540000
C        2.32020000       5.06860000      -1.93180000
H       -0.72430000       1.91280000       0.32340000
H        1.92360000       1.82530000       0.51940000
H        1.87980000       0.91490000      -0.99580000
H        0.72950000       2.87990000      -1.94210000
H        2.84240000       3.88110000      -0.19890000
H        4.52630000       3.17510000      -1.74060000
H        3.33940000       2.58820000      -2.93580000
H        2.08260000       5.79880000      -3.98640000
H        1.72260000       4.01610000      -3.82490000
H        2.18450000       6.03560000      -1.45830000
