25
Properties=species:S:1:pos:R:3 gdb_117679=T pbc="F F F"
C        0.18230000       1.39180000      -0.05880000
O        0.03560000      -0.00540000      -0.01750000
C        0.70180000      -0.66230000      -1.07610000
C        0.49950000      -2.18440000      -0.96200000
C        1.08040000      -2.67090000       0.37690000
C       -1.00700000      -2.50740000      -1.01060000
C        1.17200000      -2.81260000      -2.18570000
C        2.65540000      -3.06460000      -2.30510000
C        1.69460000      -4.22600000      -2.22490000
H        1.23910000       1.69540000       0.01420000
H       -0.23070000       1.81990000      -0.98650000
H       -0.36290000       1.80600000       0.79310000
H        0.31200000      -0.30530000      -2.04570000
H        1.77920000      -0.42570000      -1.05290000
H        0.61710000      -2.11800000       1.19690000
H        0.88690000      -3.73590000       0.53450000
H        2.16110000      -2.50630000       0.43980000
H       -1.45180000      -2.16500000      -1.95200000
H       -1.17170000      -3.58700000      -0.93650000
H       -1.53550000      -2.01480000      -0.19110000
H        0.70190000      -2.48920000      -3.11290000
H        3.13530000      -2.85150000      -3.25420000
H        3.28720000      -2.87990000      -1.44350000
H        1.69040000      -4.80570000      -1.30890000
H        1.51340000      -4.81400000      -3.11800000
