18
Properties=species:S:1:pos:R:3 gdb_116532=T pbc="F F F"
C       -0.19580000       1.67650000       0.35510000
C        0.18630000       0.21640000       0.08070000
N        0.80510000      -0.39730000       1.24440000
C        0.10030000      -1.04410000       2.07950000
N       -1.27980000      -1.23010000       2.11140000
C        0.79710000      -1.59440000       3.32500000
O        0.43660000      -0.88060000       4.49130000
C        0.50340000      -3.04020000       3.48160000
N        0.21400000      -4.15380000       3.59340000
H        0.67840000       2.23730000       0.69640000
H       -0.58150000       2.15060000      -0.55260000
H       -0.96370000       1.74670000       1.13220000
H       -0.69610000      -0.33840000      -0.28380000
H        0.92080000       0.18480000      -0.73120000
H       -1.78600000      -0.93860000       1.28830000
H       -1.58730000      -2.13280000       2.45150000
H        1.86970000      -1.45930000       3.17890000
H       -0.52130000      -0.76340000       4.47550000
