17
Properties=species:S:1:pos:R:3 gdb_8233=T pbc="F F F"
O        0.05880000       0.22650000      -1.00190000
C        0.01910000       1.27900000      -0.16460000
O        0.98420000       1.63110000       0.45840000
C       -1.33460000       1.99160000      -0.11670000
C       -2.52630000       1.06400000       0.14080000
C       -3.91980000       1.56040000      -0.33360000
C       -4.02190000       0.25980000      -1.16860000
N       -2.60970000      -0.08330000      -0.82580000
H       -0.85510000       0.05340000      -1.33290000
H       -2.51280000      -0.99050000      -0.38190000
H       -1.28050000       2.76960000       0.64750000
H       -1.47660000       2.48190000      -1.08860000
H       -2.52080000       0.73260000       1.18510000
H       -4.67130000       1.68240000       0.44710000
H       -3.87840000       2.47590000      -0.92740000
H       -4.75190000      -0.45880000      -0.78280000
H       -4.18730000       0.37780000      -2.24310000
