23
Properties=species:S:1:pos:R:3 gdb_100464=T pbc="F F F"
C        0.01340000       1.58530000       0.00650000
C       -0.00560000       0.05800000       0.08250000
C       -1.43000000      -0.52090000      -0.03490000
O       -2.06960000      -0.10930000      -1.24510000
C       -1.42950000      -1.97990000       0.10570000
C       -1.40000000      -3.18300000       0.18170000
C       -1.38900000      -4.64400000       0.27020000
C       -2.81900000      -5.20570000       0.39800000
C       -0.64580000      -5.26740000      -0.92830000
H        1.03760000       1.96790000       0.04170000
H       -0.45420000       1.92930000      -0.91940000
H       -0.53800000       2.02880000       0.84320000
H        0.60680000      -0.37430000      -0.71940000
H        0.43060000      -0.28940000       1.02620000
H       -2.04740000      -0.08170000       0.76000000
H       -1.69600000      -0.64120000      -1.95660000
H       -0.83890000      -4.91680000       1.18190000
H       -3.33170000      -4.78210000       1.26540000
H       -3.40760000      -4.96620000      -0.49300000
H       -2.79050000      -6.29450000       0.50890000
H        0.37720000      -4.88840000      -0.99810000
H       -0.60570000      -6.35640000      -0.82490000
H       -1.16020000      -5.03150000      -1.86520000
