19
Properties=species:S:1:pos:R:3 gdb_69497=T pbc="F F F"
C       -0.04400000       1.53080000       0.08260000
C       -0.07490000       0.02860000       0.13170000
C       -1.33850000      -0.73260000      -0.27760000
C       -1.24810000      -2.03430000       0.50460000
O       -1.30660000      -1.85630000       1.92970000
C       -0.02270000      -2.08680000       1.31650000
C        0.71930000      -3.33080000       1.71150000
C        0.70410000      -0.78760000       1.07310000
O        1.12650000      -0.64770000      -0.29420000
H        0.92620000       1.90820000       0.41470000
H       -0.21700000       1.88810000      -0.93870000
H       -0.82500000       1.95330000       0.72310000
H       -2.24410000      -0.17680000      -0.01170000
H       -1.35310000      -0.91200000      -1.35810000
H       -1.72750000      -2.93710000       0.13440000
H        0.04130000      -4.18640000       1.76110000
H        1.50990000      -3.54570000       0.98540000
H        1.18660000      -3.20880000       2.69490000
H        1.36960000      -0.36370000       1.82240000
