14
Properties=species:S:1:pos:R:3 gdb_15457=T pbc="F F F"
O        0.01410000      -0.00470000       0.00350000
C       -0.00250000       1.19910000       0.00930000
C       -1.25160000       2.09190000       0.03120000
C       -0.72940000       3.53970000       0.03190000
C        0.76790000       3.39540000       0.01170000
C        1.18850000       2.11590000      -0.00060000
C        2.51940000       1.64010000      -0.02020000
C        3.64000000       1.20090000      -0.03690000
H       -1.87120000       1.85930000      -0.83940000
H       -1.84730000       1.84990000       0.91600000
H       -1.07560000       4.11520000      -0.83550000
H       -1.05280000       4.10620000       0.91400000
H        1.42960000       4.25440000       0.00780000
H        4.62830000       0.81280000      -0.05170000
