18
Properties=species:S:1:pos:R:3 gdb_62148=T pbc="F F F"
O       -0.28310000       1.40260000      -0.02820000
C        0.12970000       0.04070000      -0.06470000
C        1.05270000      -0.20420000      -1.26410000
N        0.42870000       0.27600000      -2.47940000
C        0.39500000      -0.44160000      -3.63180000
O        0.92560000      -1.51990000      -3.80040000
C        0.79710000      -0.40630000       1.24990000
C       -0.04770000      -0.22060000       2.42170000
C       -0.74910000      -0.07050000       3.38530000
H        0.44780000       1.93230000       0.31080000
H       -0.79620000      -0.52610000      -0.20780000
H        2.01460000       0.30440000      -1.09240000
H        1.26330000      -1.26790000      -1.40070000
H       -0.08500000       1.14140000      -2.41030000
H       -0.18050000       0.07970000      -4.42200000
H        1.08190000      -1.46220000       1.15730000
H        1.73880000       0.14850000       1.37710000
H       -1.36960000       0.06150000       4.23680000
