19
Properties=species:S:1:pos:R:3 gdb_6397=T pbc="F F F"
C        0.01750000       1.55640000       0.07230000
C       -0.02270000       0.02650000       0.05790000
C       -1.43460000      -0.55020000      -0.00900000
C       -1.46340000      -2.07170000      -0.10500000
O       -2.10810000      -0.12770000       1.20380000
C       -3.45780000      -0.03040000       1.14110000
N       -3.95400000       0.30990000       2.36990000
O       -4.13010000      -0.23960000       0.15710000
H        1.04730000       1.92230000       0.12380000
H       -0.44020000       1.97240000      -0.83200000
H       -0.52620000       1.95210000       0.93430000
H        0.53210000      -0.35460000      -0.80770000
H        0.47740000      -0.37300000       0.94920000
H       -1.98260000      -0.12040000      -0.85340000
H       -2.49470000      -2.42870000      -0.14820000
H       -0.94820000      -2.40240000      -1.01240000
H       -0.96550000      -2.52390000       0.75880000
H       -3.32320000       0.68200000       3.05930000
H       -4.91050000       0.61880000       2.38940000
