22
Properties=species:S:1:pos:R:3 gdb_64325=T pbc="F F F"
C        0.07600000       1.48160000       0.09550000
C       -0.07900000      -0.03110000      -0.05200000
C       -1.56360000      -0.41990000      -0.07960000
C        0.68090000      -0.54250000      -1.28650000
C        0.84220000      -2.06410000      -1.27380000
C        1.52960000      -2.48510000       0.02920000
C        0.88510000      -1.88200000       1.25450000
N        0.81020000      -2.52670000       2.34300000
O        0.49580000      -0.57410000       1.17300000
H        1.13260000       1.75170000       0.17510000
H       -0.35110000       1.99590000      -0.77070000
H       -0.43700000       1.83270000       0.99510000
H       -2.06460000       0.02830000      -0.94340000
H       -1.69740000      -1.50370000      -0.13170000
H       -2.05710000      -0.06530000       0.82920000
H        0.15550000      -0.20750000      -2.18730000
H        1.67360000      -0.07550000      -1.30340000
H       -0.13340000      -2.55550000      -1.36200000
H        1.43380000      -2.39170000      -2.13430000
H        1.55780000      -3.56760000       0.16080000
H        2.57050000      -2.13340000       0.00840000
H        0.37990000      -1.93710000       3.05970000
