15
Properties=species:S:1:pos:R:3 gdb_130372=T pbc="F F F"
N        0.02990000       1.29730000      -0.06640000
C       -0.08700000      -0.04620000       0.11040000
N       -1.12140000      -0.69100000      -0.27980000
C       -1.08530000      -2.07010000      -0.20250000
N        0.02480000      -2.79610000      -0.27730000
N       -0.46680000      -4.07330000      -0.14970000
C       -1.81310000      -4.03750000      -0.04190000
N       -2.60620000      -5.17030000       0.01020000
N       -2.24410000      -2.79360000      -0.05990000
H        0.68370000       1.80990000       0.49970000
H       -0.79480000       1.79050000      -0.37330000
H        0.78240000      -0.52350000       0.57440000
H        0.13680000      -4.85970000      -0.31860000
H       -2.25320000      -5.90640000       0.60690000
H       -3.55830000      -4.92910000       0.25090000
