18
Properties=species:S:1:pos:R:3 gdb_76137=T pbc="F F F"
C       -0.12450000       1.60950000      -0.17040000
C       -0.00990000       0.10480000      -0.07860000
O       -1.14420000      -0.51960000       0.45930000
C        0.63430000      -0.72960000      -1.13830000
N        1.24990000      -0.07440000      -2.27540000
H        2.47870000       0.79220000      -1.33330000
H        1.78630000      -0.74120000      -2.82180000
H        0.55140000       0.33320000      -2.88900000
C        1.32180000      -0.59440000       0.22420000
C        2.60100000       0.16170000       0.46410000
O        3.03840000       0.95130000      -0.53160000
O        3.19470000       0.07250000       1.50830000
H        0.76500000       2.07180000      -0.59830000
H       -0.99780000       1.88120000      -0.77220000
H       -0.26300000       2.03270000       0.83110000
H       -1.22220000      -0.24840000       1.38140000
H        0.14680000      -1.68670000      -1.31180000
H        1.22670000      -1.44750000       0.88450000
