21
Properties=species:S:1:pos:R:3 gdb_107338=T pbc="F F F"
C       -0.31930000       1.47370000      -0.10720000
C        0.23660000       0.05170000       0.02970000
C        0.76580000      -0.50640000      -1.27290000
C       -0.18430000      -1.12840000      -2.25610000
C        0.82490000      -2.00240000      -1.49190000
C        2.01540000      -2.49390000      -2.22070000
C        2.82820000      -1.65190000      -2.85990000
C        2.58050000      -0.16820000      -2.83770000
O        1.86200000       0.26410000      -1.68870000
H        0.45250000       2.15340000      -0.47670000
H       -1.15810000       1.50280000      -0.81080000
H       -0.67500000       1.84900000       0.85710000
H        1.05160000       0.03950000       0.76330000
H       -0.54070000      -0.62290000       0.40610000
H       -1.23020000      -1.19540000      -1.97510000
H       -0.01330000      -1.01290000      -3.32040000
H        0.42590000      -2.64750000      -0.71570000
H        2.21260000      -3.56200000      -2.21660000
H        3.69390000      -2.00560000      -3.41080000
H        3.52850000       0.37990000      -2.80490000
H        2.06310000       0.15940000      -3.75650000
