15
Properties=species:S:1:pos:R:3 gdb_1551=T pbc="F F F"
C        0.65710000       1.30160000      -0.04220000
O        0.75000000      -0.09650000      -0.18010000
C       -0.16750000      -0.62100000      -1.10460000
C        0.05460000      -2.13880000      -1.20690000
O       -0.99440000      -2.73360000      -1.96470000
C        1.37380000      -2.46390000      -1.74970000
C        2.43040000      -2.72890000      -2.25790000
H        0.86210000       1.81890000      -0.99260000
H       -0.33930000       1.61230000       0.30980000
H        1.40350000       1.60680000       0.69480000
H       -1.20800000      -0.45260000      -0.78440000
H       -0.04110000      -0.16120000      -2.09980000
H       -0.03390000      -2.55330000      -0.19610000
H       -0.77410000      -2.62880000      -2.89660000
H        3.37270000      -2.96940000      -2.68490000
