16
Properties=species:S:1:pos:R:3 gdb_77837=T pbc="F F F"
C        0.01180000       1.54100000      -0.07270000
N       -0.00460000       0.08280000       0.06250000
C       -1.15350000      -0.57270000       0.80970000
C       -0.20660000      -1.80500000       0.99070000
C        0.08110000      -2.61980000      -0.17040000
C        0.30930000      -3.36260000      -1.08720000
C        0.69340000      -0.55240000       1.25310000
C       -0.48840000       0.02590000       2.08040000
O       -0.71200000       0.77560000       2.97720000
H        1.00310000       1.83910000      -0.42610000
H       -0.71710000       1.82010000      -0.83890000
H       -0.21550000       2.09720000       0.84900000
H       -2.17600000      -0.55460000       0.43800000
H       -0.41260000      -2.41110000       1.87650000
H        0.51410000      -4.00060000      -1.91090000
H        1.77260000      -0.51110000       1.38600000
