17
Properties=species:S:1:pos:R:3 gdb_116998=T pbc="F F F"
C       -0.11940000       1.58270000      -0.26340000
C       -0.00510000       0.07200000      -0.04580000
C        0.66410000      -0.63590000      -1.22440000
C        0.79690000      -2.13430000      -1.03530000
O        0.41230000      -2.73400000      -0.05590000
C        1.43490000      -2.84720000      -2.13550000
C        1.95350000      -3.44280000      -3.05280000
C        2.60150000      -4.15970000      -4.12540000
O        2.03660000      -4.53400000      -5.12520000
H        0.86620000       2.04300000      -0.39490000
H       -0.71380000       1.81480000      -1.15410000
H       -0.60030000       2.06590000       0.59210000
H        0.56400000      -0.13770000       0.86600000
H       -0.99630000      -0.36440000       0.11540000
H        0.11160000      -0.46770000      -2.16010000
H        1.66970000      -0.23380000      -1.41540000
H        3.68130000      -4.34240000      -3.95590000
