14
Properties=species:S:1:pos:R:3 gdb_54567=T pbc="F F F"
N       -0.13690000       1.27220000      -0.38370000
C        0.01070000      -0.00050000       0.06580000
O        1.05520000      -0.50160000       0.42720000
C       -1.28370000      -0.76700000       0.08010000
O       -2.51840000      -0.13370000      -0.37430000
C       -2.96580000      -1.46740000      -0.00180000
C       -1.66360000      -2.18420000      -0.48070000
O       -1.44880000      -2.87700000       0.77420000
C       -1.98810000      -1.60390000       1.20820000
H        0.67210000       1.86920000      -0.43410000
H       -1.03820000       1.61610000      -0.67020000
H       -4.01730000      -1.72570000      -0.11510000
H       -1.40030000      -2.67130000      -1.41810000
H       -2.10910000      -1.40310000       2.27140000
