20
Properties=species:S:1:pos:R:3 gdb_115677=T pbc="F F F"
C        0.01880000       1.62080000       0.04120000
C       -0.17100000       0.11800000      -0.18240000
C        0.73180000      -0.42950000      -1.28490000
C        2.23350000      -0.61270000      -0.92340000
N        2.03980000      -2.08710000      -0.86670000
H        2.72840000      -2.63960000      -1.36540000
H        0.99530000      -3.04850000       0.43030000
C        0.70830000      -1.98160000      -1.51380000
C       -0.37620000      -2.77220000      -0.78520000
O        0.04790000      -3.30630000       0.36970000
O       -1.50280000      -2.87850000      -1.19230000
H        1.05050000       1.86000000       0.32230000
H       -0.21720000       2.18820000      -0.86590000
H       -0.63350000       1.98420000       0.84050000
H        0.02100000      -0.42570000       0.75110000
H       -1.21350000      -0.09140000      -0.44780000
H        0.56940000       0.13300000      -2.20710000
H        2.91480000      -0.28710000      -1.71720000
H        2.56830000      -0.18010000       0.02530000
H        0.67490000      -2.24840000      -2.57460000
