15
Properties=species:S:1:pos:R:3 gdb_45695=T pbc="F F F"
O       -0.08020000      -0.07620000      -0.24630000
C       -0.02930000       1.11080000      -0.00880000
C       -1.31130000       1.96340000       0.11520000
N       -1.21020000       3.20860000       0.89120000
C       -0.06760000       3.70670000       0.79100000
O        0.53930000       4.69640000       1.51850000
C        1.85260000       4.10750000       1.21260000
C        1.18770000       3.21250000       0.12910000
N        1.17380000       1.77650000       0.15860000
H       -1.66500000       2.16670000      -0.90540000
H       -2.06310000       1.31850000       0.57450000
H        2.55610000       4.86560000       0.86620000
H        2.23710000       3.56320000       2.07830000
H        1.35610000       3.63070000      -0.87190000
H        1.99010000       1.24170000      -0.10460000
