19
Properties=species:S:1:pos:R:3 gdb_105006=T pbc="F F F"
C       -0.51720000      -1.63100000       0.65420000
C        0.58990000      -0.65470000       0.24960000
C        0.93350000      -0.64660000      -1.23110000
C        0.68100000      -1.79520000      -2.11070000
O       -0.16400000      -0.62920000      -2.14620000
C        2.07090000       0.31570000      -1.62610000
N        2.25270000       0.33930000      -3.07380000
C        1.82850000       1.66600000      -1.06300000
N        1.66400000       2.74110000      -0.66990000
H       -1.40050000      -1.49280000       0.02490000
H       -0.19540000      -2.67360000       0.57330000
H       -0.80940000      -1.45780000       1.69320000
H        0.29490000       0.36350000       0.52880000
H        1.50830000      -0.86850000       0.81220000
H        1.30150000      -1.93660000      -2.99010000
H        0.20950000      -2.68570000      -1.70360000
H        2.99400000      -0.05940000      -1.16570000
H        1.37780000       0.62500000      -3.50500000
H        2.96200000       1.01790000      -3.32880000
