17
Properties=species:S:1:pos:R:3 gdb_47474=T pbc="F F F"
O        0.09650000       0.02010000      -0.63670000
C        0.10640000       1.18880000      -0.38990000
O       -1.04280000       1.91190000      -0.25150000
C       -0.76170000       3.28660000       0.04800000
C        0.70840000       3.50570000      -0.34650000
C        1.31450000       2.10700000      -0.16940000
C        1.92580000       1.89220000       1.24230000
C        2.52750000       0.58080000       1.43720000
C        3.04180000      -0.49290000       1.59490000
H       -1.46240000       3.90380000      -0.51820000
H       -0.93620000       3.45620000       1.11710000
H        0.77370000       3.81540000      -1.39310000
H        1.19190000       4.27360000       0.26240000
H        2.07420000       1.86930000      -0.91560000
H        2.68620000       2.66810000       1.39640000
H        1.15700000       2.06440000       2.00720000
H        3.47880000      -1.45120000       1.72940000
