17
Properties=species:S:1:pos:R:3 gdb_37900=T pbc="F F F"
C       -0.07240000       1.47080000       0.01100000
O        1.31090000       1.91580000       0.01530000
C        2.21940000       0.76860000      -0.09170000
C        2.22970000       0.01050000       1.25520000
C        0.94450000      -0.78450000       1.02220000
C        0.99970000      -1.55120000      -0.31380000
O       -0.45470000      -1.24220000      -0.57980000
C        0.15830000      -0.01410000      -0.08770000
C        1.42500000      -0.20150000      -0.95290000
H       -0.56160000       1.79680000       0.93500000
H       -0.60280000       1.89180000      -0.85140000
H        3.16950000       1.16770000      -0.44330000
H        3.11460000      -0.62180000       1.38720000
H        2.16570000       0.70590000       2.09560000
H        0.38360000      -1.22380000       1.84480000
H        1.31300000      -2.57020000      -0.54090000
H        1.33170000      -0.05550000      -2.02650000
