13
Properties=species:S:1:pos:R:3 gdb_5174=T pbc="F F F"
O       -0.30980000       0.06770000       0.00510000
C       -0.08880000       1.25580000       0.00920000
N        1.15800000       1.82590000      -0.00020000
C        2.35770000       1.11190000      -0.01620000
C        2.65640000      -0.22830000      -0.03100000
N        4.02490000      -0.40070000      -0.04280000
C        4.54250000       0.79930000      -0.03580000
N        3.57080000       1.76820000      -0.01950000
H       -0.87990000       2.02970000       0.02090000
H        1.20040000       2.83310000       0.00290000
H        1.96400000      -1.05070000      -0.03300000
H        5.59290000       1.04760000      -0.04170000
H        3.71950000       2.76330000      -0.01070000
