14
Properties=species:S:1:pos:R:3 gdb_14634=T pbc="F F F"
C        0.02540000       1.51250000       0.00990000
C        0.02260000       0.06080000       0.00210000
C        0.01910000      -1.14930000      -0.00440000
C        0.01570000      -2.50940000      -0.01160000
C        0.01310000      -3.71870000      -0.01810000
C        0.02150000      -5.18010000      -0.02600000
C       -1.31730000      -5.77400000      -0.01640000
C       -2.40940000      -6.27180000      -0.00870000
H        1.04800000       1.90640000       0.00200000
H       -0.49310000       1.91450000      -0.86790000
H       -0.47590000       1.90500000       0.90190000
H        0.57110000      -5.53780000      -0.90850000
H        0.58780000      -5.54720000       0.84180000
H       -3.37820000      -6.70630000      -0.00170000
