14
Properties=species:S:1:pos:R:3 gdb_129856=T pbc="F F F"
N        0.09090000       1.38640000       0.12680000
C       -0.00930000      -0.00150000       0.01990000
C       -1.12720000      -0.82210000      -0.00470000
C       -0.59390000      -2.13680000      -0.00020000
C        0.78300000      -2.08840000       0.01610000
N        1.15350000      -0.75230000       0.00000000
C        1.18290000      -3.43610000      -0.03490000
N        0.13300000      -4.23770000      -0.06100000
O       -1.01530000      -3.40690000      -0.04960000
H        0.65140000       1.80720000      -0.60640000
H       -0.81840000       1.82830000       0.14740000
H       -2.15380000      -0.49930000      -0.05270000
H        2.04600000      -0.37890000       0.27340000
H        2.16650000      -3.88310000      -0.04080000
