21
Properties=species:S:1:pos:R:3 gdb_122548=T pbc="F F F"
O        0.16280000       1.10810000      -0.82810000
C       -0.18190000       0.17200000       0.17410000
C       -1.66820000      -0.14510000       0.15790000
O       -1.95810000      -0.69600000      -1.12080000
C       -3.31050000      -0.98260000      -1.31200000
C       -4.25870000       0.11600000      -1.72120000
C       -3.84180000      -0.95350000      -2.71310000
C       -2.95260000      -0.59180000      -3.87320000
O       -3.77510000      -0.05280000      -4.90040000
H       -0.20030000       0.75840000      -1.64960000
H        0.38670000      -0.76510000       0.06330000
H        0.08780000       0.61660000       1.13760000
H       -1.92060000      -0.86300000       0.95470000
H       -2.25640000       0.77010000       0.31730000
H       -3.68760000      -1.75840000      -0.64430000
H       -5.27130000       0.11430000      -1.33370000
H       -3.82860000       1.10130000      -1.86830000
H       -4.58450000      -1.70880000      -2.95340000
H       -2.19240000       0.13130000      -3.54550000
H       -2.41950000      -1.48990000      -4.22390000
H       -3.21870000       0.11860000      -5.66600000
