18
Properties=species:S:1:pos:R:3 gdb_88746=T pbc="F F F"
O       -0.13570000       0.77460000      -0.97500000
C       -0.16430000      -0.25300000      -0.02770000
C       -0.21360000       0.09160000       1.43730000
C       -1.45300000      -0.43280000       0.72650000
C       -2.60380000       0.48130000       0.45810000
C       -3.92070000      -0.07280000      -0.01430000
N       -3.77820000       0.45380000       1.32360000
C       -3.93650000      -0.29290000       2.47520000
O       -4.78940000      -1.13050000       2.64790000
H        0.73940000       1.17570000      -0.95320000
H        0.36720000      -1.15830000      -0.31960000
H        0.29010000      -0.55040000       2.15130000
H       -0.20550000       1.14830000       1.68470000
H       -1.73800000      -1.45810000       0.94670000
H       -2.32370000       1.47290000       0.11480000
H       -4.53770000       0.50650000      -0.69510000
H       -4.01700000      -1.15200000      -0.10620000
H       -3.22570000       0.01950000       3.26410000
