11
Properties=species:S:1:pos:R:3 gdb_123295=T pbc="F F F"
C        0.14630000      -1.20540000      -0.00560000
C        0.05930000      -0.00560000       0.00230000
C       -0.05240000       1.39160000       0.01140000
C       -1.14500000       2.23070000       0.03150000
N       -0.63850000       3.51900000       0.03130000
N        0.61440000       3.50690000       0.01310000
O        1.05260000       2.14730000      -0.00070000
C       -2.51870000       1.92940000       0.04960000
C       -3.69370000       1.67310000       0.06510000
H        0.22210000      -2.26550000      -0.01260000
H       -4.73170000       1.44700000       0.07880000
