17
Properties=species:S:1:pos:R:3 gdb_80192=T pbc="F F F"
O       -0.00910000       1.34010000      -0.14740000
C       -0.02520000      -0.05270000      -0.02790000
C       -0.47420000      -0.69380000       1.26660000
C       -1.09700000       0.24480000       2.29180000
C       -2.17330000       0.98660000       1.50460000
O       -2.63320000       2.07910000       1.71910000
C       -2.58380000       0.13150000       0.29830000
O       -3.06590000       0.90900000      -0.76140000
C       -1.36330000      -0.72210000       0.01410000
H        0.75480000       1.67810000       0.33280000
H        0.75330000      -0.57080000      -0.58670000
H        0.02950000      -1.58830000       1.61430000
H       -1.57180000      -0.32260000       3.10210000
H       -0.40470000       0.95380000       2.75430000
H       -3.37910000      -0.54810000       0.66190000
H       -3.20010000       1.79560000      -0.39470000
H       -1.49940000      -1.63600000      -0.55130000
