21
Properties=species:S:1:pos:R:3 gdb_104179=T pbc="F F F"
C       -0.25070000       1.27690000      -0.13060000
O       -0.13620000      -0.13660000      -0.21260000
C        0.76220000      -0.63660000      -1.21810000
C        2.19500000      -0.18540000      -0.97210000
C        0.52030000      -2.14980000      -1.24210000
C       -0.78650000      -2.24140000      -2.04940000
O       -1.93560000      -2.07400000      -1.24250000
C       -0.59170000      -1.09700000      -3.06690000
O        0.36830000      -0.18860000      -2.49940000
H        0.62660000       1.72840000       0.34990000
H       -0.38840000       1.72190000      -1.12180000
H       -1.12840000       1.48530000       0.48530000
H        2.50250000      -0.44120000       0.04510000
H        2.86380000      -0.67680000      -1.68220000
H        2.29410000       0.89350000      -1.11200000
H        1.34310000      -2.63990000      -1.77090000
H        0.42250000      -2.58050000      -0.24510000
H       -0.90540000      -3.20420000      -2.55290000
H       -1.74250000      -1.32240000      -0.66390000
H       -0.19290000      -1.45590000      -4.02360000
H       -1.54040000      -0.58220000      -3.24830000
