17
Properties=species:S:1:pos:R:3 gdb_116549=T pbc="F F F"
C        0.01440000       1.64300000       0.10650000
C        0.08480000       0.12050000      -0.04480000
N       -1.24550000      -0.44860000       0.03440000
C       -1.70380000      -1.16600000      -0.90490000
N       -2.99810000      -1.72190000      -0.85640000
C       -3.96710000      -1.61130000       0.12660000
O       -3.89480000      -1.00320000       1.15980000
C       -1.01820000      -1.52640000      -2.12630000
C       -0.46450000      -1.83650000      -3.14870000
H        1.02190000       2.06960000       0.13230000
H       -0.52730000       2.09190000      -0.73170000
H       -0.50650000       1.91140000       1.02920000
H        0.61590000      -0.14590000      -0.97020000
H        0.66070000      -0.29300000       0.79350000
H       -3.25150000      -2.27870000      -1.65820000
H       -4.86580000      -2.18670000      -0.17980000
H        0.03680000      -2.10320000      -4.04720000
