11
Properties=species:S:1:pos:R:3 gdb_5465=T pbc="F F F"
N        0.09530000       1.38750000       0.17440000
C       -0.00160000       0.03300000       0.06160000
C       -1.11470000      -0.77770000       0.01960000
O       -0.65840000      -2.08950000      -0.03310000
C        0.67110000      -1.97210000      -0.02390000
N        1.12990000      -0.75970000       0.02960000
C       -2.48640000      -0.50690000       0.01510000
N       -3.61260000      -0.22350000       0.00900000
H        0.98380000       1.77750000      -0.09840000
H       -0.71100000       1.93390000      -0.08390000
H        1.24160000      -2.88740000      -0.06270000
