21
Properties=species:S:1:pos:R:3 gdb_94857=T pbc="F F F"
O       -0.34210000       1.46970000       0.31780000
C       -0.00540000       0.11540000       0.01570000
C        0.75910000      -0.54440000       1.17630000
C       -0.35520000      -0.82980000       2.19160000
C       -1.51360000      -1.36160000       1.32600000
C       -1.68870000      -2.90450000       1.33070000
O       -2.90320000      -2.81620000       2.09710000
C       -2.90790000      -1.37830000       1.99290000
C       -1.33130000      -0.66820000      -0.04820000
H        0.47870000       1.95790000       0.43910000
H        0.54850000       0.06770000      -0.93210000
H        1.21750000      -1.47990000       0.83010000
H        1.56360000       0.08920000       1.56510000
H       -0.06740000      -1.52340000       2.98660000
H       -0.65900000       0.11130000       2.66290000
H       -1.86390000      -3.34820000       0.33990000
H       -0.91410000      -3.48580000       1.84830000
H       -2.97850000      -0.89440000       2.97530000
H       -3.72800000      -1.01650000       1.35700000
H       -2.14490000       0.02720000      -0.27110000
H       -1.30550000      -1.40740000      -0.85470000
