19
Properties=species:S:1:pos:R:3 gdb_107443=T pbc="F F F"
O        0.11320000       1.39460000       0.32130000
C       -0.01320000       0.04300000      -0.09760000
C       -1.43010000      -0.48300000      -0.04070000
C       -1.92830000      -1.42820000      -1.12280000
C       -2.50170000      -0.03850000      -1.00470000
O       -3.71870000       0.14570000      -0.32180000
C       -3.53160000      -0.04260000       1.06020000
C       -3.28780000      -1.43510000       1.57920000
C       -2.11900000      -0.50280000       1.31380000
H       -0.12450000       1.44570000       1.25190000
H        0.34060000       0.02550000      -1.13310000
H        0.65400000      -0.61560000       0.48160000
H       -1.25530000      -1.60650000      -1.95640000
H       -2.54220000      -2.28110000      -0.86240000
H       -2.34370000       0.69380000      -1.78920000
H       -4.06420000       0.68690000       1.66100000
H       -3.53380000      -1.61410000       2.62120000
H       -3.46720000      -2.28340000       0.93060000
H       -1.54660000      -0.14870000       2.16490000
