17
Properties=species:S:1:pos:R:3 gdb_6331=T pbc="F F F"
C       -0.41990000       1.73320000       0.73020000
N       -0.75420000       0.33120000       0.58520000
C        0.21660000      -0.49910000       0.55690000
N        1.55590000      -0.25830000       0.66640000
N       -0.14780000      -1.85990000       0.44770000
C        0.64680000      -2.95980000       0.25780000
C       -0.12120000      -4.26670000       0.16770000
O        1.86570000      -2.91370000       0.17760000
H        0.16240000       2.12440000      -0.12190000
H       -1.34000000       2.32060000       0.78360000
H        0.16040000       1.94070000       1.64390000
H        1.86720000       0.68060000       0.48720000
H        2.17310000      -1.02950000       0.43900000
H       -1.15060000      -1.97330000       0.46000000
H       -0.59150000      -4.49860000       1.12910000
H       -0.91230000      -4.21200000      -0.58670000
H        0.57550000      -5.06310000      -0.09050000
