14
Properties=species:S:1:pos:R:3 gdb_31379=T pbc="F F F"
C        0.05880000       1.37350000       0.00730000
O       -0.03870000      -0.06050000       0.00350000
C       -1.26250000      -0.55780000       0.01080000
N       -2.32770000       0.14530000       0.02100000
C       -3.58330000      -0.50080000       0.02830000
O       -4.61840000       0.12630000       0.03780000
C       -3.52680000      -1.97370000       0.02330000
C       -2.34480000      -2.59130000       0.01260000
O       -1.16240000      -1.90890000       0.00590000
H        1.12750000       1.58480000      -0.00040000
H       -0.42860000       1.79000000      -0.87650000
H       -0.41470000       1.78440000       0.90120000
H       -4.45090000      -2.53570000       0.02840000
H       -2.17340000      -3.65970000       0.00810000
