18
Properties=species:S:1:pos:R:3 gdb_31071=T pbc="F F F"
C       -0.03150000       1.44030000       0.07980000
O       -0.01960000       0.02150000       0.02570000
C        0.59370000      -0.60590000       1.05560000
C        0.72260000      -1.96330000       1.17630000
C        0.29890000      -3.09530000       0.31090000
N        1.42780000      -2.11310000       2.38110000
C        1.65950000      -0.87340000       2.88140000
N        2.26760000      -0.67150000       4.12120000
N        1.17860000       0.07080000       2.10020000
H        0.98460000       1.84990000       0.08520000
H       -0.55990000       1.76930000      -0.81720000
H       -0.55230000       1.80320000       0.97270000
H        1.14670000      -3.68680000      -0.06080000
H       -0.38370000      -3.78920000       0.82050000
H       -0.22890000      -2.69450000      -0.55750000
H        1.60150000      -2.98210000       2.85660000
H        3.17350000      -1.11990000       4.20210000
H        2.36970000       0.32260000       4.28430000
