21
Properties=species:S:1:pos:R:3 gdb_82215=T pbc="F F F"
C       -0.04250000       1.56260000       0.05270000
C        0.03130000       0.03910000       0.00640000
N        0.70790000      -0.47430000      -1.21480000
C        2.12210000      -0.12260000      -1.42260000
C        1.76260000      -1.42190000      -0.79840000
C        1.77590000      -1.49800000       0.70990000
N        2.11400000      -0.21700000       1.37960000
C        0.69820000      -0.61560000       1.22980000
C       -0.13200000      -0.91010000       2.45270000
H        0.94780000       1.99700000       0.20930000
H       -0.45560000       1.95210000      -0.88190000
H       -0.69000000       1.89110000       0.87250000
H       -0.99130000      -0.35780000      -0.04690000
H        2.41420000      -0.08670000      -2.46910000
H        2.59350000       0.61010000      -0.77770000
H        1.83580000      -2.35740000      -1.34660000
H        2.04250000      -2.43160000       1.19420000
H        2.41820000      -0.40640000       2.33280000
H       -0.46750000       0.01470000       2.93700000
H       -1.02360000      -1.49200000       2.19570000
H        0.44260000      -1.48160000       3.18950000
