20
Properties=species:S:1:pos:R:3 gdb_88166=T pbc="F F F"
C       -0.04680000       1.45580000      -0.20970000
C        0.06040000      -0.03740000      -0.01810000
N        1.42120000      -0.60970000       0.01780000
C        0.57820000      -0.66420000       1.22220000
C        1.06240000       0.08350000       2.47030000
O        0.61470000      -0.69580000       3.58020000
C        0.62970000      -2.05000000       3.13650000
C       -0.01640000      -1.97900000       1.75040000
O       -1.43410000      -1.95270000       1.83010000
H        0.77170000       1.97540000       0.29540000
H        0.00300000       1.71150000      -1.27330000
H       -0.99710000       1.83430000       0.18270000
H       -0.70360000      -0.61740000      -0.53400000
H        1.43960000      -1.51500000      -0.44670000
H        2.15970000       0.15680000       2.45600000
H        0.64500000       1.08780000       2.58050000
H        1.66070000      -2.43600000       3.07430000
H        0.05700000      -2.65400000       3.84330000
H        0.23060000      -2.83260000       1.11220000
H       -1.66390000      -1.26750000       2.46940000
