21
Properties=species:S:1:pos:R:3 gdb_39025=T pbc="F F F"
C       -0.02760000       1.47080000       0.07010000
C        1.31210000       0.77340000       0.00750000
C        1.97590000       0.41250000       1.34590000
C        0.99540000      -0.54830000       2.00360000
C       -0.03780000      -0.80430000       1.20020000
C       -1.18820000      -1.77930000       1.13610000
C       -1.80090000      -1.53420000      -0.27730000
C       -0.67740000      -0.87090000      -1.12210000
C        0.03410000      -0.03380000      -0.07760000
H       -0.36350000       1.89110000       1.01410000
H       -0.31380000       2.04110000      -0.80940000
H        1.94030000       0.95920000      -0.85650000
H        2.94810000      -0.07580000       1.18970000
H        2.17870000       1.30320000       1.95610000
H        1.17130000      -0.97410000       2.98520000
H       -0.82590000      -2.80910000       1.23860000
H       -1.92830000      -1.63090000       1.92950000
H       -2.18760000      -2.44980000      -0.73260000
H       -2.64070000      -0.83610000      -0.19200000
H       -0.00630000      -1.63950000      -1.52650000
H       -1.07190000      -0.29720000      -1.96510000
