19
Properties=species:S:1:pos:R:3 gdb_48633=T pbc="F F F"
O       -0.65480000       0.72760000      -0.66170000
C        0.10330000       0.98580000       0.24010000
C        1.33370000       1.84290000       0.08450000
C        2.64730000       1.15020000      -0.40370000
N        3.01660000       2.43280000      -1.09790000
C        1.53310000       2.71240000      -1.17850000
C        3.59200000       3.35270000      -0.09270000
C        2.99800000       3.13320000       1.33040000
N        1.62540000       2.58010000       1.31560000
H       -0.04050000       0.57930000       1.26630000
H        3.34880000       0.77870000       0.34570000
H        2.44580000       0.37140000      -1.14240000
H        1.11150000       2.27010000      -2.08420000
H        1.25400000       3.76800000      -1.10840000
H        4.67790000       3.20690000      -0.05950000
H        3.41450000       4.37300000      -0.44930000
H        3.64000000       2.43840000       1.88320000
H        2.99750000       4.06420000       1.90340000
H        0.95390000       3.33670000       1.40300000
