14
Properties=species:S:1:pos:R:3 gdb_54079=T pbc="F F F"
O       -0.25590000       0.34850000      -0.22130000
C        0.80030000       0.68420000       0.15180000
O        1.86590000       0.97050000       0.49640000
C       -2.71720000       2.86950000       0.77600000
N       -3.00290000       1.70950000       0.08310000
C       -4.13370000       1.24010000      -0.37710000
N       -4.20660000       0.15120000      -1.23720000
H       -3.34730000      -0.37610000      -1.33340000
H       -4.98480000      -0.46840000      -1.04770000
C       -1.41700000       3.06340000       1.21000000
N       -0.30290000       3.18700000       1.54900000
H       -3.52130000       3.56080000       0.96860000
H       -2.17230000       1.14980000      -0.10590000
H       -5.04530000       1.78840000      -0.17940000
