17
Properties=species:S:1:pos:R:3 gdb_49079=T pbc="F F F"
O        0.00140000      -0.04750000       0.13540000
C        0.03300000       1.14770000      -0.04400000
C        1.29200000       1.93890000      -0.04470000
C        2.60680000       1.20400000       0.19360000
O        3.54690000       2.28990000       0.11720000
C        2.71540000       3.39470000      -0.13160000
C        1.58680000       3.03880000      -1.14810000
C        0.65830000       4.03920000      -0.42710000
C        1.40830000       3.32460000       0.71720000
H       -0.90410000       1.71830000      -0.22070000
H        2.65720000       0.72380000       1.17640000
H        2.82470000       0.45550000      -0.57520000
H        3.29070000       4.31600000      -0.21770000
H        1.68950000       2.84860000      -2.21700000
H        0.88960000       5.09870000      -0.56730000
H       -0.41640000       3.87190000      -0.50430000
H        1.30580000       3.46320000       1.79390000
