18
Properties=species:S:1:pos:R:3 gdb_97999=T pbc="F F F"
O       -0.03290000       1.01330000       0.85790000
C       -0.07040000       0.12650000      -0.25520000
C       -1.37000000      -0.52870000      -0.31820000
C       -2.44050000      -1.07320000      -0.40040000
C       -3.72590000      -1.75560000      -0.44950000
C       -3.84950000      -2.84360000       0.64210000
N       -5.14630000      -3.50030000       0.63480000
C       -5.45320000      -4.48670000      -0.24830000
O       -4.69320000      -4.92150000      -1.08820000
H        0.83720000       1.42530000       0.86520000
H        0.10560000       0.66660000      -1.20000000
H        0.71680000      -0.64130000      -0.17800000
H       -4.54190000      -1.03080000      -0.33410000
H       -3.86430000      -2.23610000      -1.42460000
H       -3.08180000      -3.60290000       0.47640000
H       -3.68710000      -2.40420000       1.62920000
H       -5.86620000      -3.17590000       1.25980000
H       -6.48650000      -4.86310000      -0.11000000
