14
Properties=species:S:1:pos:R:3 gdb_49263=T pbc="F F F"
O        0.05130000      -0.03730000      -0.08690000
C        0.01440000       1.16990000      -0.01670000
C        1.22850000       2.00380000      -0.00250000
C        1.20750000       3.34070000       0.06820000
C        2.52180000       4.05170000       0.03050000
O        3.60180000       3.23920000       0.52510000
C        3.64110000       1.89940000       0.30560000
O        4.65090000       1.27330000       0.47170000
N        2.43900000       1.32780000      -0.07370000
H       -0.93750000       1.73470000       0.03290000
H        0.27910000       3.89350000       0.13130000
H        2.76380000       4.37150000      -0.99540000
H        2.52290000       4.94610000       0.65950000
H        2.40610000       0.31800000      -0.09420000
