16
Properties=species:S:1:pos:R:3 gdb_111036=T pbc="F F F"
O        0.29580000       0.49330000       1.06740000
C       -0.06390000       0.34740000      -0.29610000
C       -1.38820000      -0.38730000      -0.30970000
C       -1.97590000      -1.10060000      -1.55810000
C       -0.93170000      -2.23750000      -1.44590000
C       -1.50360000      -1.92180000      -0.03730000
O       -2.85570000      -1.87520000      -0.64250000
C       -1.31620000      -2.64350000       1.19720000
N       -1.13720000      -3.22590000       2.17890000
H        1.13200000       0.96580000       1.11600000
H       -0.20270000       1.32450000      -0.78730000
H        0.71100000      -0.19070000      -0.86010000
H       -2.14730000       0.16520000       0.24730000
H       -2.43880000      -0.67160000      -2.44450000
H       -1.25630000      -3.19560000      -1.85010000
H        0.11900000      -2.02530000      -1.64410000
