17
Properties=species:S:1:pos:R:3 gdb_39763=T pbc="F F F"
C        0.04780000       1.52160000       0.02810000
O        1.21130000       0.65660000       0.01390000
C       -0.07060000       0.07310000      -0.00160000
C       -0.60770000      -0.99650000       0.93860000
C       -1.83810000      -1.14630000      -0.03140000
C       -2.17680000      -2.63170000      -0.06250000
O       -0.86220000      -3.21110000      -0.07040000
C       -0.03010000      -2.07110000      -0.04490000
C       -0.60210000      -0.95740000      -0.98740000
H       -0.10700000       2.06740000       0.95780000
H       -0.10170000       2.10470000      -0.87970000
H       -0.61650000      -1.02230000       2.02730000
H       -2.64380000      -0.41330000      -0.01890000
H       -2.73240000      -2.96830000       0.82130000
H       -2.72730000      -2.93220000      -0.96240000
H        1.02160000      -2.34760000      -0.04750000
H       -0.60470000      -0.93920000      -2.07640000
