21
Properties=species:S:1:pos:R:3 gdb_95151=T pbc="F F F"
O       -0.08440000       1.45710000       0.08080000
C        0.00940000       0.03960000      -0.00520000
C        0.85070000      -0.53730000       1.15400000
C        0.64050000      -2.04940000       1.40190000
C       -0.85520000      -2.44230000       1.27640000
C       -1.32200000      -2.05990000      -0.14540000
C       -1.42800000      -0.52790000       0.00600000
C       -2.03970000      -0.42450000       1.39700000
C       -1.72410000      -1.50720000       2.11040000
H        0.80760000       1.80980000       0.16250000
H        0.46640000      -0.24530000      -0.96790000
H        1.91390000      -0.32990000       0.97870000
H        0.56480000       0.01700000       2.05270000
H        1.21480000      -2.64010000       0.67760000
H        1.03140000      -2.30710000       2.39270000
H       -0.98870000      -3.50250000       1.51080000
H       -0.62430000      -2.37570000      -0.92880000
H       -2.30420000      -2.49010000      -0.36160000
H       -2.01050000      -0.03550000      -0.77720000
H       -2.57610000       0.44710000       1.75100000
H       -1.95770000      -1.67720000       3.15540000
