14
Properties=species:S:1:pos:R:3 gdb_42496=T pbc="F F F"
O        0.36160000       0.15340000       0.59520000
C        0.18850000       1.23510000       0.09460000
C        1.24010000       1.97260000      -0.73540000
N        2.52540000       1.32450000      -0.81500000
C        3.29590000       1.35350000       0.42980000
C        4.62390000       0.76940000       0.22320000
N        5.66360000       0.29090000       0.07120000
C       -1.10230000       1.94190000       0.22670000
N       -2.09240000       2.53400000       0.30730000
H        0.81960000       2.09900000      -1.74350000
H        1.34750000       2.98980000      -0.33570000
H        2.41820000       0.36490000      -1.12720000
H        3.42580000       2.39970000       0.73310000
H        2.81860000       0.82700000       1.27000000
