21
Properties=species:S:1:pos:R:3 gdb_111693=T pbc="F F F"
C       -0.01910000       1.28550000      -0.40260000
O       -0.13630000       0.17330000       0.46150000
C       -1.31070000      -0.54390000       0.26110000
C       -1.42390000      -1.63920000      -0.77480000
C       -0.13090000      -2.23140000      -1.31580000
O        0.68520000      -2.54050000      -0.19780000
C       -0.13320000      -2.76490000       0.95020000
C        0.66580000      -2.40380000       2.19520000
C       -1.41160000      -1.96860000       0.71130000
H        0.93020000       1.77370000      -0.17170000
H       -0.02230000       0.98390000      -1.45930000
H       -0.83800000       2.00500000      -0.24630000
H       -2.21380000       0.05570000       0.40060000
H       -2.31880000      -1.71530000      -1.38250000
H       -0.36570000      -3.13390000      -1.90440000
H        0.44060000      -1.55120000      -1.95740000
H       -0.41810000      -3.83140000       0.99750000
H        0.93030000      -1.34530000       2.17580000
H        0.07880000      -2.61040000       3.09590000
H        1.58150000      -3.00040000       2.24040000
H       -2.30340000      -2.28380000       1.24160000
