12
Properties=species:S:1:pos:R:3 gdb_21345=T pbc="F F F"
N       -0.07680000      -1.18340000      -0.00700000
C       -0.03780000      -0.02970000       0.00100000
C       -0.00180000       1.44020000       0.01060000
N        1.34390000       1.98070000       0.00040000
C        2.14660000       2.26750000       1.07410000
N        3.30510000       2.71740000       0.67720000
N        3.29040000       2.72750000      -0.70700000
C        2.12360000       2.28340000      -1.08580000
H       -0.54580000       1.81530000      -0.86130000
H       -0.52780000       1.80360000       0.89830000
H        1.83010000       2.13330000       2.09730000
H        1.78560000       2.16410000      -2.10390000
