12
Properties=species:S:1:pos:R:3 gdb_20615=T pbc="F F F"
C        0.01500000       1.51650000       0.09420000
C        0.06300000       0.03160000      -0.01630000
C       -0.04620000      -0.77490000      -1.13830000
N        0.06940000      -2.04290000      -0.64750000
N        0.23760000      -2.03100000       0.67550000
N        0.23440000      -0.78510000       1.06010000
C       -0.23270000      -0.47500000      -2.50340000
N       -0.38610000      -0.22330000      -3.62370000
H        0.94350000       1.89960000       0.52800000
H       -0.12850000       1.97810000      -0.88490000
H       -0.80440000       1.82660000       0.74960000
H        0.04230000      -2.91840000      -1.14810000
