21
Properties=species:S:1:pos:R:3 gdb_60788=T pbc="F F F"
C       -0.09190000       1.58030000      -0.04980000
C        0.01160000       0.04790000      -0.01340000
C        0.65420000      -0.43610000      -1.30210000
O        0.21570000      -1.31080000      -2.00450000
C        0.77370000      -0.51260000       1.24940000
C        0.72540000      -2.05900000       1.23510000
C        2.24860000      -0.04570000       1.30490000
C        0.07890000      -0.03800000       2.45080000
C       -0.48830000       0.33750000       3.44270000
H        0.88370000       2.05130000      -0.20950000
H       -0.74920000       1.89950000      -0.86430000
H       -0.50280000       1.95770000       0.88930000
H       -0.99270000      -0.38660000       0.01100000
H        1.58850000       0.10300000      -1.58560000
H        1.24500000      -2.45630000       0.35870000
H        1.20390000      -2.45900000       2.13290000
H       -0.30690000      -2.41750000       1.20950000
H        2.32930000       1.04350000       1.32190000
H        2.72230000      -0.42860000       2.21260000
H        2.81190000      -0.42490000       0.44690000
H       -0.98730000       0.66580000       4.32090000
