21
Properties=species:S:1:pos:R:3 gdb_69367=T pbc="F F F"
C        0.16990000       1.55900000       0.03360000
C       -0.06330000       0.08690000       0.12780000
C       -1.37660000      -0.69290000      -0.06260000
C       -0.81340000      -1.79960000       0.91090000
C       -0.66680000      -3.20650000       0.40040000
C       -0.55190000      -4.36180000       1.36460000
C       -1.80100000      -4.19190000       0.53500000
C        0.47100000      -0.95540000       1.02280000
O        0.98640000      -0.79580000      -0.30820000
H        1.17980000       1.80860000       0.36990000
H        0.06030000       1.90490000      -1.00080000
H       -0.55200000       2.10730000       0.64780000
H       -2.25420000      -0.18300000       0.34320000
H       -1.57900000      -1.00700000      -1.08980000
H       -1.36820000      -1.79130000       1.85560000
H       -0.07240000      -3.27640000      -0.50550000
H        0.12470000      -5.17290000       1.11930000
H       -0.61740000      -4.14710000       2.42670000
H       -2.70260000      -3.86170000       1.04150000
H       -1.98010000      -4.88770000      -0.27720000
H        1.18840000      -0.90150000       1.83530000
