18
Properties=species:S:1:pos:R:3 gdb_97778=T pbc="F F F"
C        0.30940000       0.65040000      -0.61520000
C       -0.39420000       0.56240000       0.75230000
C       -1.60200000      -0.25400000       0.70830000
C       -2.58760000      -0.94290000       0.63160000
C       -3.74480000      -1.78130000       0.53650000
C       -4.65610000      -1.70890000      -0.66490000
C       -3.78600000      -2.93490000      -0.48330000
C       -2.66810000      -3.15750000      -1.35440000
N       -1.76810000      -3.34930000      -2.05530000
H        1.22080000       1.24980000      -0.53460000
H        0.57660000      -0.34550000      -0.97740000
H       -0.34440000       1.11400000      -1.35870000
H        0.29730000       0.14510000       1.49530000
H       -0.64530000       1.57100000       1.10500000
H       -4.22570000      -2.02670000       1.47930000
H       -5.72130000      -1.83440000      -0.51040000
H       -4.37810000      -1.02000000      -1.45240000
H       -4.27500000      -3.84350000      -0.14940000
