15
Properties=species:S:1:pos:R:3 gdb_72844=T pbc="F F F"
O        0.04140000       1.41920000      -0.12830000
C        0.02190000       0.02670000       0.01840000
C        0.23480000      -0.83180000      -1.25290000
O       -1.06870000      -1.44050000      -1.10080000
C       -1.36920000      -0.61780000       0.04950000
C       -1.40910000      -1.47430000       1.31490000
O       -2.31510000      -2.11910000       1.74710000
O       -0.17860000      -1.44580000       1.90790000
C        0.69620000      -0.47790000       1.31300000
H        0.95320000       1.71040000      -0.24200000
H        0.29940000      -0.23440000      -2.16930000
H        1.04170000      -1.57320000      -1.22740000
H       -2.25490000       0.00700000      -0.08030000
H        1.66570000      -0.95640000       1.14560000
H        0.81920000       0.35900000       2.00850000
