19
Properties=species:S:1:pos:R:3 gdb_126908=T pbc="F F F"
C       -0.16270000       1.55370000      -0.10930000
C       -0.30090000       0.06030000      -0.38740000
N       -1.29020000      -0.54700000       0.51260000
C       -1.52560000      -1.93430000       0.31840000
C       -2.75390000      -2.44960000      -0.06940000
N       -3.97020000      -1.79490000      -0.24610000
N       -2.59160000      -3.78900000      -0.17000000
N       -1.32520000      -4.19790000       0.12520000
C       -0.68740000      -3.07450000       0.42360000
H        0.55240000       2.01280000      -0.79820000
H       -1.12720000       2.05890000      -0.21750000
H        0.19820000       1.73380000       0.91030000
H       -0.64830000      -0.10260000      -1.41410000
H        0.68770000      -0.42420000      -0.31480000
H       -1.03440000      -0.34990000       1.47550000
H       -3.81280000      -0.79670000      -0.14650000
H       -4.40870000      -1.98160000      -1.14090000
H       -3.29390000      -4.47890000      -0.37270000
H        0.35740000      -3.11380000       0.69960000
