21
Properties=species:S:1:pos:R:3 gdb_109039=T pbc="F F F"
C       -0.26500000       1.49000000      -0.01250000
C        0.13320000       0.00360000       0.02550000
C        0.85270000      -0.45060000      -1.20810000
C        2.11090000      -0.88910000      -1.31690000
C        2.43100000      -1.36410000      -2.69780000
C        1.62510000      -2.56930000      -3.14170000
C        1.15600000      -1.17180000      -3.48550000
C        0.13850000      -0.50140000      -2.56300000
O       -1.13980000      -1.12760000      -2.50780000
H        0.61650000       2.13000000      -0.12020000
H       -0.93820000       1.69870000      -0.84940000
H       -0.78240000       1.77540000       0.90850000
H        0.75590000      -0.19030000       0.90600000
H       -0.77870000      -0.59680000       0.13920000
H        2.81890000      -0.95840000      -0.49700000
H        3.41060000      -1.19220000      -3.12920000
H        2.00370000      -3.16540000      -3.96580000
H        1.11740000      -3.14090000      -2.36990000
H        1.17640000      -0.88340000      -4.52920000
H       -0.08230000       0.51210000      -2.92120000
H       -0.98910000      -2.06650000      -2.34960000
