16
Properties=species:S:1:pos:R:3 gdb_128129=T pbc="F F F"
C        0.13230000       1.46930000       0.01310000
N       -0.15010000       0.04930000       0.15670000
C        0.52500000      -0.71800000       1.05300000
C        0.69740000      -2.08040000       1.10210000
N        0.23530000      -3.00270000       0.12860000
C        1.42870000      -2.24470000       2.30860000
O        1.84190000      -3.43030000       2.78950000
N        1.69250000      -1.12160000       2.93250000
O        1.09450000      -0.12160000       2.10570000
H        1.13270000       1.67360000      -0.39390000
H       -0.61480000       1.90880000      -0.65090000
H        0.05510000       1.95610000       0.98720000
H       -0.37330000      -0.46370000      -0.68460000
H       -0.48610000      -3.61430000       0.49930000
H        0.98550000      -3.60300000      -0.19940000
H        2.32760000      -3.25730000       3.60710000
