19
Properties=species:S:1:pos:R:3 gdb_92674=T pbc="F F F"
C       -0.09670000       1.58680000      -0.01470000
C        0.08320000       0.06950000      -0.01150000
C        0.87210000      -0.50520000      -1.22480000
O        1.88580000       0.37610000      -1.68460000
C        1.47680000      -1.82450000      -0.68820000
C        1.62060000      -1.55020000       0.78630000
C        0.86390000      -0.50880000       1.17360000
C        0.72450000      -0.01460000       2.49210000
C        0.57390000       0.44160000       3.59790000
H        0.86510000       2.10350000      -0.05960000
H       -0.68200000       1.90320000      -0.88320000
H       -0.61830000       1.91250000       0.88950000
H       -0.91420000      -0.39560000      -0.00700000
H        0.22260000      -0.66080000      -2.08980000
H        2.50970000       0.50570000      -0.96050000
H        0.80070000      -2.67490000      -0.86040000
H        2.41790000      -2.05980000      -1.19630000
H        2.22810000      -2.14970000       1.45390000
H        0.45080000       0.83100000       4.57790000
