19
Properties=species:S:1:pos:R:3 gdb_2392=T pbc="F F F"
C        0.07540000       1.52430000      -0.23650000
C        0.08300000       0.02020000      -0.07400000
C        1.39100000      -0.74040000      -0.01740000
C        0.53090000      -0.61380000       1.21040000
C        0.94740000       0.06360000       2.52630000
C        0.61310000      -1.26780000       3.26240000
C       -0.10350000      -1.78260000       1.97880000
H        0.90870000       1.98280000       0.30600000
H        0.16830000       1.81190000      -1.28980000
H       -0.85130000       1.96550000       0.14820000
H       -0.73140000      -0.49190000      -0.58350000
H        1.45190000      -1.70720000      -0.50830000
H        2.31140000      -0.16340000      -0.05420000
H        1.97870000       0.42010000       2.59930000
H        0.27900000       0.88260000       2.81280000
H        1.50950000      -1.84720000       3.49640000
H        0.00590000      -1.18970000       4.16680000
H       -1.19410000      -1.70560000       2.04440000
H        0.15140000      -2.79190000       1.64310000
