17
Properties=species:S:1:pos:R:3 gdb_12466=T pbc="F F F"
O       -0.00510000      -0.10240000       0.13220000
C       -0.02570000       1.10850000       0.03090000
C       -1.36720000       1.85110000      -0.07980000
C       -1.36180000       3.08090000      -1.00800000
C       -0.74590000       4.33830000      -0.35340000
N        0.34270000       4.04270000       0.59710000
C        1.36580000       3.19700000       0.07760000
C        1.24250000       1.87430000      -0.09290000
H       -2.08460000       1.10230000      -0.42600000
H       -1.69500000       2.13340000       0.93140000
H       -0.81580000       2.82860000      -1.92320000
H       -2.38810000       3.30780000      -1.31640000
H       -0.36990000       5.02210000      -1.12190000
H       -1.50840000       4.88330000       0.21300000
H       -0.06990000       3.58770000       1.40400000
H        2.30460000       3.69670000      -0.15870000
H        2.10420000       1.27620000      -0.37540000
