15
Properties=species:S:1:pos:R:3 gdb_27999=T pbc="F F F"
N        0.06470000       1.41810000       0.16640000
C        0.01350000       0.02830000       0.03490000
C       -1.08730000      -0.77700000       0.04560000
N       -0.63800000      -2.11090000      -0.01800000
C       -1.44880000      -3.23380000      -0.03250000
O       -2.65370000      -3.18580000       0.01670000
C        0.74680000      -2.09950000      -0.07740000
O        1.38230000      -3.29100000      -0.15070000
C        1.18970000      -0.81280000      -0.04610000
H        0.79750000       1.84520000      -0.38460000
H       -0.81840000       1.87080000      -0.02850000
H       -2.14210000      -0.57670000       0.09820000
H       -0.86590000      -4.16540000      -0.09380000
H        2.33120000      -3.13200000      -0.16150000
H        2.21780000      -0.48390000      -0.05950000
