18
Properties=species:S:1:pos:R:3 gdb_64579=T pbc="F F F"
C       -0.14950000       1.61900000       0.00250000
C       -0.01780000       0.11740000      -0.03630000
C       -1.09670000      -0.63060000       0.68870000
O       -2.12910000      -0.14170000       1.07390000
C        0.57960000      -0.65820000      -1.20270000
C        1.39660000       0.09910000      -2.18590000
C        2.47550000       0.60320000      -1.58490000
C        2.48970000       0.21710000      -0.12340000
N        1.27550000      -0.60710000       0.09210000
H        0.44910000       2.11310000      -0.76300000
H       -1.20060000       1.88330000      -0.13420000
H        0.15270000       2.00200000       0.98380000
H       -0.86240000      -1.70780000       0.83600000
H        0.12540000      -1.60270000      -1.49560000
H        1.12550000       0.20420000      -3.22850000
H        3.23540000       1.22460000      -2.04360000
H        3.36950000      -0.38460000       0.13810000
H        2.49390000       1.08740000       0.54570000
