17
Properties=species:S:1:pos:R:3 gdb_58024=T pbc="F F F"
C        0.01140000       1.57500000      -0.14230000
C        0.03710000       0.04920000      -0.03250000
N        0.77720000      -0.43290000       1.15450000
H        0.13700000      -2.01760000       1.08690000
H        1.77540000      -0.30080000       1.02660000
H        0.51080000       0.10340000       1.97710000
C       -1.39200000      -0.57730000       0.01890000
C       -2.23710000      -0.05500000      -1.05330000
N       -2.86940000       0.41270000      -1.89880000
C       -1.42210000      -2.13960000       0.00040000
O       -0.47700000      -2.72110000       0.73140000
O       -2.26330000      -2.74590000      -0.60140000
H        1.03320000       1.96660000      -0.16400000
H       -0.50170000       1.90410000      -1.04850000
H       -0.50460000       2.01770000       0.71820000
H        0.54730000      -0.36780000      -0.90770000
H       -1.84890000      -0.27700000       0.97420000
