13
Properties=species:S:1:pos:R:3 gdb_26789=T pbc="F F F"
C        0.17970000       1.48740000       0.12670000
C       -0.01820000       0.02430000       0.01920000
C       -1.09670000      -0.78550000      -0.21000000
O       -2.36780000      -0.39990000      -0.41320000
N       -0.71870000      -2.10060000      -0.20960000
C        0.56610000      -2.05860000       0.01730000
O        1.06000000      -0.81080000       0.16610000
C        1.46310000      -3.14900000       0.11970000
N        2.19770000      -4.03960000       0.20360000
H        0.87830000       1.85760000      -0.63180000
H       -0.78090000       1.98650000      -0.01670000
H        0.57330000       1.77110000       1.10910000
H       -2.89410000      -1.19800000      -0.54500000
