20
Properties=species:S:1:pos:R:3 gdb_6050=T pbc="F F F"
C       -0.18770000       1.55530000      -0.10050000
C       -0.03190000       0.03330000      -0.04550000
O        0.67270000      -0.43450000      -1.18940000
C        0.68260000      -0.48760000       1.22710000
C        0.65570000      -2.02480000       1.24810000
O        2.03420000      -0.03180000       1.10740000
C        0.10270000       0.08900000       2.52920000
O        0.93980000      -0.23550000       3.63930000
H        0.77220000       2.04560000       0.08750000
H       -0.53490000       1.83760000      -1.09740000
H       -0.91590000       1.92420000       0.62890000
H       -1.02200000      -0.43510000      -0.10180000
H        1.59790000      -0.20010000      -1.04000000
H        1.04230000      -2.40820000       0.30290000
H        1.28230000      -2.41750000       2.05600000
H       -0.36380000      -2.40350000       1.38290000
H        2.40580000      -0.06660000       1.99850000
H        0.09970000       1.17970000       2.48680000
H       -0.92910000      -0.25460000       2.68770000
H        0.81160000      -1.16570000       3.85050000
