22
Properties=species:S:1:pos:R:3 gdb_58039=T pbc="F F F"
C       -0.55950000       1.73600000      -0.83140000
C       -0.06300000       0.52960000      -0.02020000
N       -1.16140000      -0.21300000       0.62280000
C        0.78530000      -0.51780000      -0.80530000
C        0.22170000      -0.76470000      -2.15920000
N       -0.17650000      -0.94980000      -3.22950000
N        2.22440000      -0.26410000      -0.82740000
C        2.97750000      -1.46230000      -1.18830000
C        2.65590000       0.89140000      -1.60650000
H        0.24810000       2.32040000      -1.27880000
H       -1.22280000       1.41240000      -1.64020000
H       -1.12700000       2.40440000      -0.17580000
H        0.60280000       0.87110000       0.77990000
H       -1.68110000       0.41930000       1.22570000
H       -1.82580000      -0.51100000      -0.09000000
H        0.64830000      -1.44630000      -0.24240000
H        2.81660000      -1.78570000      -2.23150000
H        4.04510000      -1.26680000      -1.05410000
H        2.69750000      -2.28780000      -0.52690000
H        2.24720000       1.81260000      -1.18760000
H        3.74540000       0.96130000      -1.54750000
H        2.37500000       0.83340000      -2.67240000
