15
Properties=species:S:1:pos:R:3 gdb_55484=T pbc="F F F"
N        0.26860000       0.90690000       0.20050000
C       -0.31330000      -0.34310000      -0.03090000
N        0.62880000      -1.33050000      -0.30370000
H        0.24320000      -2.26410000      -0.33310000
H        1.44800000      -1.27580000       0.28950000
C       -1.62970000      -0.55030000       0.00270000
C       -2.88270000      -0.67580000       0.05010000
C       -4.19430000      -0.81000000       0.09720000
C       -2.20550000      -4.10550000       0.03280000
O       -1.04460000      -4.07210000      -0.06000000
O       -3.36020000      -4.16870000       0.12560000
H        1.00030000       1.13130000      -0.46430000
H       -0.41080000       1.65100000       0.26880000
H       -4.66420000      -1.78680000       0.07600000
H       -4.84480000       0.05590000       0.16140000
