17
Properties=species:S:1:pos:R:3 gdb_124300=T pbc="F F F"
C        0.44230000       0.63190000       0.71460000
C       -0.17250000       0.07720000      -0.55530000
O        0.31510000       0.25530000      -1.64710000
C       -1.43950000      -0.76960000      -0.38500000
C       -1.06490000      -2.19110000      -0.06210000
C       -0.28910000      -3.05000000      -0.82130000
N       -0.21480000      -4.21060000      -0.12890000
N       -0.88470000      -4.18110000       1.03740000
C       -1.39900000      -2.95530000       1.08030000
H        1.41660000       1.07270000       0.50090000
H       -0.21840000       1.39850000       1.13730000
H        0.53950000      -0.15680000       1.46780000
H       -2.06370000      -0.36760000       0.41960000
H       -2.00220000      -0.71030000      -1.32140000
H        0.20040000      -2.91300000      -1.77250000
H        0.27020000      -5.05230000      -0.39020000
H       -2.00140000      -2.65520000       1.92630000
