23
Properties=species:S:1:pos:R:3 gdb_64123=T pbc="F F F"
C       -0.28240000       1.47870000      -0.14110000
C        0.03750000      -0.00990000      -0.02020000
O       -1.16930000      -0.76590000       0.13120000
C        0.88630000      -0.56210000      -1.17640000
O        1.48470000      -1.74830000      -0.70160000
C        1.62930000      -1.69850000       0.74050000
C        0.94560000      -2.94790000       1.30280000
C        3.12400000      -1.68810000       1.07210000
C        0.92210000      -0.38820000       1.17590000
H        0.62750000       2.08350000      -0.20180000
H       -0.87610000       1.67590000      -1.04210000
H       -0.86600000       1.81020000       0.72220000
H       -1.66810000      -0.69960000      -0.69010000
H        0.28240000      -0.80250000      -2.06050000
H        1.64380000       0.18080000      -1.47980000
H        1.37750000      -3.84560000       0.85020000
H        1.07990000      -3.01170000       2.38810000
H       -0.12250000      -2.91960000       1.07940000
H        3.61860000      -0.83090000       0.60460000
H        3.28330000      -1.62800000       2.15420000
H        3.60300000      -2.60050000       0.70480000
H        1.65450000       0.40380000       1.35920000
H        0.32160000      -0.51520000       2.07880000
