22
Properties=species:S:1:pos:R:3 gdb_8950=T pbc="F F F"
C       -0.22900000       1.47780000       0.06460000
C        0.06020000      -0.02550000       0.01350000
C        0.81640000      -0.49060000      -1.24780000
C        2.27200000       0.00220000      -1.25840000
C        0.73540000      -2.02040000      -1.38970000
O       -0.62630000      -2.47920000      -1.43780000
C        1.46620000      -2.59590000      -2.60930000
O        1.23260000      -3.98220000      -2.72360000
H        0.68630000       2.07790000       0.08080000
H       -0.81830000       1.79700000      -0.80280000
H       -0.80020000       1.73260000       0.96280000
H        0.64010000      -0.32020000       0.89900000
H       -0.88330000      -0.57690000       0.07100000
H        0.30640000      -0.06030000      -2.12660000
H        2.77060000      -0.20230000      -2.20960000
H        2.32200000       1.08160000      -1.09300000
H        2.85230000      -0.48090000      -0.46330000
H        1.14390000      -2.49520000      -0.48840000
H       -1.07200000      -1.98640000      -2.13790000
H        1.13390000      -2.05310000      -3.51530000
H        2.54730000      -2.45400000      -2.52230000
H        0.30810000      -4.10250000      -2.46780000
