21
Properties=species:S:1:pos:R:3 gdb_41953=T pbc="F F F"
C       -0.01270000       1.38610000      -0.17780000
C        1.39470000       1.98290000      -0.01070000
C        2.13570000       1.40790000       1.21430000
C        1.50050000       1.79780000       2.55790000
O        0.16490000       1.33330000       2.69260000
C        0.01300000      -0.06060000       2.46660000
C        0.63130000      -0.52950000       1.14100000
C        2.10930000      -0.12490000       1.10180000
O       -0.04810000      -0.03170000      -0.00750000
H       -0.70670000       1.86760000       0.51960000
H       -0.37940000       1.56040000      -1.19450000
H        1.99200000       1.75980000      -0.90310000
H        1.31170000       3.07430000       0.05590000
H        3.16790000       1.77850000       1.21730000
H        2.12430000       1.40440000       3.38000000
H        1.44640000       2.88560000       2.67100000
H        0.47050000      -0.63790000       3.29000000
H       -1.06410000      -0.25010000       2.47150000
H        0.51680000      -1.61770000       1.08260000
H        2.56250000      -0.46390000       0.16480000
H        2.65480000      -0.59290000       1.92980000
