21
Properties=species:S:1:pos:R:3 gdb_92600=T pbc="F F F"
C        0.23210000       1.57960000      -0.19150000
C        0.11540000       0.08890000       0.04750000
O        0.87550000      -0.70220000      -0.90010000
C        1.35600000      -1.58830000       0.14240000
C        2.87480000      -1.60240000       0.23420000
C        3.21480000      -0.22130000       0.83140000
C        2.06830000       0.04640000       1.83200000
C        0.81830000      -0.62940000       1.23460000
O       -0.02940000      -1.22000000       2.19180000
H        1.26950000       1.92240000      -0.15090000
H       -0.16700000       1.83050000      -1.17950000
H       -0.34920000       2.13300000       0.55470000
H       -0.94240000      -0.21320000       0.03000000
H        0.88030000      -2.57320000       0.09010000
H        3.18280000      -2.40650000       0.91410000
H        3.34510000      -1.78510000      -0.73620000
H        4.19840000      -0.19030000       1.30760000
H        3.21190000       0.53060000       0.03720000
H        2.27820000      -0.45850000       2.78230000
H        1.92660000       1.11050000       2.04620000
H       -0.20100000      -0.57470000       2.88550000
