17
Properties=species:S:1:pos:R:3 gdb_48702=T pbc="F F F"
O       -0.13610000       0.02470000       0.04170000
C        0.00690000       1.22150000      -0.04780000
C        1.30060000       1.90860000      -0.00260000
C        1.43840000       3.37790000       0.32100000
C        1.79660000       2.95620000      -1.06290000
C        3.12140000       2.22950000      -1.07800000
C        4.02340000       2.01900000      -2.20680000
O        4.37750000       2.88300000      -1.11450000
C        2.67260000       1.22370000      -0.00140000
H       -0.86600000       1.90050000      -0.19100000
H        0.50610000       3.92800000       0.40950000
H        2.20870000       3.68150000       1.02440000
H        1.25740000       3.31660000      -1.93080000
H        4.59250000       1.09280000      -2.27590000
H        3.83650000       2.52180000      -3.15530000
H        3.22050000       1.26130000       0.94410000
H        2.62690000       0.19280000      -0.35700000
