13
Properties=species:S:1:pos:R:3 gdb_24790=T pbc="F F F"
N       -0.03690000       1.32310000       0.13320000
C       -0.00610000       0.05610000      -0.02540000
C       -1.23200000      -0.73020000      -0.06690000
C       -1.17890000      -2.06370000      -0.23470000
O        0.03370000      -2.71270000      -0.37050000
C        1.14180000      -1.92990000      -0.32410000
N        1.20380000      -0.67310000      -0.17110000
C       -2.29010000      -2.93840000      -0.29240000
C       -3.23840000      -3.67690000      -0.34060000
H        0.92160000       1.67940000       0.13360000
H       -2.18480000      -0.23010000       0.03860000
H        2.03190000      -2.54170000      -0.44060000
H       -4.07810000      -4.32670000      -0.38280000
