17
Properties=species:S:1:pos:R:3 gdb_92389=T pbc="F F F"
C        0.23960000       1.55820000      -0.03130000
C        0.07090000       0.05560000       0.06070000
N        0.91900000      -0.75070000      -0.87460000
C        1.38970000      -1.62960000       0.21620000
C        2.71550000      -1.13750000       0.81530000
O        2.01440000      -0.17190000       1.65360000
C        0.73000000      -0.68440000       1.26620000
C       -0.10430000      -1.07270000       2.38570000
N       -0.79420000      -1.39660000       3.25530000
H        1.28320000       1.83170000       0.13750000
H       -0.05880000       1.91020000      -1.02350000
H       -0.38350000       2.06400000       0.71350000
H       -0.98900000      -0.22630000       0.00830000
H        0.38540000      -1.23520000      -1.58600000
H        1.20050000      -2.69900000       0.12880000
H        3.24840000      -1.86940000       1.43320000
H        3.39540000      -0.65380000       0.10940000
