17
Properties=species:S:1:pos:R:3 gdb_59191=T pbc="F F F"
C        0.05130000       1.50610000      -0.07890000
C        0.01970000      -0.01100000       0.10310000
O        0.67120000      -0.41140000       1.30600000
C       -1.40460000      -0.56220000       0.07660000
C       -2.09270000      -0.78520000      -1.30250000
O       -1.18520000      -1.94020000      -1.53430000
C       -1.55680000      -2.09890000      -0.10040000
C       -3.00110000      -1.83980000      -0.60820000
O       -4.10550000      -2.26810000      -0.58670000
H        1.08130000       1.86800000      -0.02450000
H       -0.36880000       1.80050000      -1.04580000
H       -0.53090000       2.00850000       0.70440000
H        0.58890000      -0.49040000      -0.69690000
H        0.27770000       0.08020000       2.03590000
H       -2.03230000      -0.10630000       0.85330000
H       -2.26140000      -0.09890000      -2.12970000
H       -1.09820000      -2.91210000       0.45620000
