11
Properties=species:S:1:pos:R:3 gdb_21330=T pbc="F F F"
N       -0.11090000      -1.18240000       0.41560000
C       -0.05050000      -0.04360000       0.23710000
C        0.01300000       1.40200000       0.00310000
C        1.41510000       1.92090000      -0.07970000
C        2.13930000       2.46890000      -1.09030000
N        3.37150000       2.78370000      -0.56720000
N        3.43600000       2.47330000       0.64550000
O        2.16610000       1.89920000       1.01730000
H       -0.51070000       1.63390000      -0.92920000
H       -0.52260000       1.91210000       0.81230000
H        1.88510000       2.65500000      -2.11950000
