13
Properties=species:S:1:pos:R:3 gdb_46812=T pbc="F F F"
N       -0.06130000       1.25140000       0.28340000
C       -0.00170000       0.03010000      -0.00770000
O        1.12670000      -0.69160000      -0.27540000
C        0.81940000      -1.98060000      -0.83500000
C       -0.66570000      -2.17360000      -0.62480000
O       -1.04210000      -2.03970000       0.73850000
C       -1.18470000      -0.88780000      -0.11780000
C       -2.51340000      -0.38440000      -0.33840000
N       -3.58270000       0.00750000      -0.52780000
H        0.86440000       1.68240000       0.27250000
H        1.07260000      -1.98530000      -1.90110000
H        1.41810000      -2.73240000      -0.31350000
H       -1.25130000      -2.85310000      -1.23550000
