20
Properties=species:S:1:pos:R:3 gdb_6155=T pbc="F F F"
C        0.50670000       1.33460000       0.18430000
C       -0.02160000      -0.08290000      -0.00450000
O       -1.42510000      -0.06880000      -0.21530000
C        0.78980000      -0.96040000      -1.01620000
C        1.30580000      -1.83410000       0.16410000
C        2.78220000      -1.67280000       0.47540000
O        3.05160000      -2.36320000       1.68660000
C        0.33820000      -1.08520000       1.12420000
H        1.58020000       1.34170000       0.39630000
H        0.34750000       1.93260000      -0.72290000
H       -0.01260000       1.82350000       1.01470000
H       -1.61260000       0.54580000      -0.93360000
H        0.12620000      -1.50080000      -1.69430000
H        1.55450000      -0.44140000      -1.60440000
H        1.09280000      -2.90130000       0.06400000
H        3.38000000      -2.07670000      -0.35880000
H        3.03480000      -0.60270000       0.56590000
H        3.97950000      -2.23920000       1.90630000
H        0.79250000      -0.66320000       2.02400000
H       -0.53300000      -1.67620000       1.41160000
