19
Properties=species:S:1:pos:R:3 gdb_72244=T pbc="F F F"
C       -0.10400000       1.50610000      -0.01380000
C       -0.01610000       0.01100000       0.01920000
C       -0.01500000      -0.94990000      -1.12810000
O        1.10540000      -1.81120000      -1.14170000
C        1.82780000      -1.55760000       0.07210000
C        0.80190000      -0.89670000       0.99110000
C       -0.45150000      -1.82100000       1.15840000
C       -1.06620000      -1.10070000      -0.03740000
O       -2.41910000      -0.93450000      -0.27570000
H        0.85760000       1.95930000      -0.28220000
H       -0.84440000       1.83310000      -0.75040000
H       -0.40530000       1.91190000       0.95870000
H       -0.34980000      -0.64330000      -2.11300000
H        2.20390000      -2.51280000       0.45320000
H        2.68410000      -0.89400000      -0.12420000
H        1.20970000      -0.44840000       1.89690000
H       -0.28700000      -2.90230000       1.08460000
H       -1.00070000      -1.59310000       2.07540000
H       -2.73300000      -1.68800000      -0.78840000
