18
Properties=species:S:1:pos:R:3 gdb_43194=T pbc="F F F"
O       -0.03480000       0.03850000      -0.58420000
C       -0.05550000       1.18230000      -0.22920000
C       -1.14870000       2.20740000       0.13120000
C       -1.58530000       2.23830000       1.61560000
C       -0.39440000       3.20140000       1.85880000
N       -0.05600000       3.24530000       0.38980000
C        0.97200000       2.25170000       0.01690000
C        2.37660000       2.13880000       0.54510000
C        2.15400000       2.54270000      -0.88220000
H       -1.89390000       2.41670000      -0.63970000
H       -2.56540000       2.69380000       1.76570000
H       -1.56230000       1.27950000       2.13730000
H       -0.66860000       4.18920000       2.23710000
H        0.41380000       2.80130000       2.47900000
H        2.69190000       2.90610000       1.24460000
H        2.74670000       1.14150000       0.75770000
H        2.36100000       1.82290000      -1.66680000
H        2.29650000       3.58440000      -1.14550000
