12
Properties=species:S:1:pos:R:3 gdb_131067=T pbc="F F F"
O        0.01460000      -0.02540000       0.14160000
C       -0.01170000       1.14390000      -0.05820000
O        1.08470000       1.93030000       0.25400000
C        0.98950000       3.28340000       0.15440000
C        2.17140000       4.01160000      -0.05470000
N        2.12250000       5.32670000      -0.11690000
C        0.89590000       5.86000000       0.01600000
N       -0.23920000       5.20150000       0.20880000
N       -0.18390000       3.87030000       0.29440000
H       -0.83200000       1.72330000      -0.49950000
H        3.12820000       3.50760000      -0.16140000
H        0.81350000       6.94050000      -0.03650000
