20
Properties=species:S:1:pos:R:3 gdb_59582=T pbc="F F F"
C        0.05620000       1.37020000      -0.31350000
C        0.00270000      -0.11960000       0.01330000
O        0.70760000      -0.43590000       1.21230000
C       -1.42900000      -0.63870000       0.10860000
N       -2.25990000      -0.47880000      -1.12620000
C       -2.68040000      -1.90340000      -1.07630000
C       -1.76650000      -2.79190000      -1.93280000
O       -0.78870000      -2.86850000      -0.86100000
C       -1.65610000      -2.17040000       0.05250000
H        1.09380000       1.70660000      -0.38950000
H       -0.45220000       1.57230000      -1.26050000
H       -0.43770000       1.96150000       0.46980000
H        0.50910000      -0.68990000      -0.77120000
H        0.37350000       0.14110000       1.90820000
H       -1.91060000      -0.21690000       1.00630000
H       -3.02580000       0.17510000      -1.02050000
H       -3.75100000      -2.10720000      -1.04030000
H       -2.16890000      -3.78640000      -2.16600000
H       -1.36540000      -2.32190000      -2.83640000
H       -1.81440000      -2.71650000       0.98380000
