16
Properties=species:S:1:pos:R:3 gdb_4793=T pbc="F F F"
C        0.03150000       1.43090000       0.09640000
O        0.05000000       0.00980000      -0.01390000
C        0.61920000      -0.67400000       0.98380000
C        0.77940000      -2.01440000       1.14800000
C        1.46080000      -2.17130000       2.40930000
C        1.87260000      -3.45950000       3.05040000
C        1.65170000      -0.91920000       2.89440000
O        1.13580000       0.01900000       2.02270000
H        1.04650000       1.83850000       0.14600000
H       -0.46820000       1.78970000      -0.80390000
H       -0.52370000       1.75310000       0.98340000
H        0.45800000      -2.78490000       0.46710000
H        2.56160000      -4.02230000       2.41020000
H        2.37290000      -3.28290000       4.00660000
H        1.00830000      -4.10660000       3.23850000
H        2.10570000      -0.52240000       3.78600000
