20
Properties=species:S:1:pos:R:3 gdb_82184=T pbc="F F F"
C        0.13120000       1.58770000      -0.00810000
C        0.01330000       0.06010000       0.00920000
C        0.65210000      -0.61980000      -1.20640000
O        2.05650000      -0.39500000      -1.35840000
C        1.63480000      -1.62110000      -0.76200000
C        1.65410000      -1.64740000       0.76270000
C        1.89830000      -2.95940000       1.46010000
N        2.13870000      -0.37420000       1.33970000
C        0.68450000      -0.61160000       1.21530000
H        1.18510000       1.87320000      -0.01770000
H       -0.35440000       2.01220000      -0.89280000
H       -0.33990000       2.02800000       0.87670000
H       -1.04680000      -0.22820000       0.01900000
H        0.09430000      -0.69410000      -2.13860000
H        1.87380000      -2.52540000      -1.31720000
H        2.93520000      -3.29080000       1.33070000
H        1.70210000      -2.87540000       2.53390000
H        1.24680000      -3.74700000       1.06450000
H        2.41450000      -0.54110000       2.30610000
H        0.10550000      -0.73670000       2.12680000
