20
Properties=species:S:1:pos:R:3 gdb_100637=T pbc="F F F"
C       -0.00160000       1.57820000       0.18870000
C        0.03230000       0.04580000       0.05500000
N        0.68070000      -0.51250000       1.24660000
C       -1.36280000      -0.44820000      -0.08620000
N       -2.43550000      -0.87090000      -0.18460000
C        0.81890000      -0.45090000      -1.20760000
N        0.21160000      -0.13700000      -2.49850000
C        2.27670000       0.03230000      -1.25300000
O        2.96110000      -0.60540000      -2.30790000
H        1.00570000       1.95240000       0.37990000
H       -0.39950000       2.04890000      -0.71360000
H       -0.64450000       1.87290000       1.02310000
H        0.19010000      -0.21840000       2.08610000
H        0.64270000      -1.52800000       1.22660000
H        0.85380000      -1.54570000      -1.13920000
H       -0.68360000      -0.60010000      -2.61520000
H        0.05580000       0.86160000      -2.60110000
H        2.29740000       1.12960000      -1.37060000
H        2.78720000      -0.21240000      -0.31960000
H        2.34770000      -0.58180000      -3.05600000
