19
Properties=species:S:1:pos:R:3 gdb_22854=T pbc="F F F"
C       -0.04510000       1.58290000      -0.03420000
C        0.01020000       0.08110000      -0.01020000
C       -1.06330000      -0.74290000       0.12280000
N       -2.37690000      -0.38890000       0.32820000
C       -0.69750000      -2.20530000       0.13200000
C        0.81800000      -2.20530000      -0.15530000
C        1.21700000      -0.73520000      -0.10910000
N        2.46620000      -0.45260000      -0.16300000
O        2.71180000       0.94410000      -0.11470000
H        0.53570000       1.98810000      -0.86490000
H       -1.07490000       1.94580000      -0.13440000
H        0.37050000       2.02030000       0.87940000
H       -2.63150000       0.56540000       0.12220000
H       -3.06990000      -1.05630000       0.02500000
H       -0.93940000      -2.65130000       1.10500000
H       -1.27190000      -2.76730000      -0.61620000
H        1.38710000      -2.79290000       0.56830000
H        1.03470000      -2.62020000      -1.14430000
H        3.67240000       0.96930000      -0.15400000
