17
Properties=species:S:1:pos:R:3 gdb_56055=T pbc="F F F"
O       -0.32400000       0.16910000      -0.35430000
C       -0.81330000      -0.68920000       0.26480000
O       -1.23770000      -1.57740000       0.88080000
C       -2.42180000       3.52200000      -1.58210000
N       -2.57550000       2.38300000      -0.90770000
H       -1.73920000       1.80600000      -0.84020000
C       -3.60260000       1.81140000      -0.28450000
N       -3.36630000       0.56610000       0.33020000
C       -4.05630000       0.24970000       1.58800000
C       -4.43250000      -0.44470000       0.32650000
H       -3.26170000       4.18890000      -1.69780000
H       -1.45090000       3.73880000      -1.99140000
H       -4.56610000       2.31010000      -0.27150000
H       -3.46000000      -0.26470000       2.33650000
H       -4.74390000       0.99670000       1.97770000
H       -5.37530000      -0.16900000      -0.14010000
H       -4.11170000      -1.46780000       0.15080000
