19
Properties=species:S:1:pos:R:3 gdb_80294=T pbc="F F F"
C       -0.05030000       1.55800000       0.06360000
C        0.04340000       0.05050000       0.06900000
C        1.33080000      -0.71600000      -0.22240000
N        2.59530000      -0.06140000      -0.05770000
C        2.73220000       0.46440000       1.22500000
O        3.57370000       1.24780000       1.60370000
N        1.70640000      -0.09270000       1.97940000
C        0.72600000      -0.76340000       1.16600000
C        0.07960000      -1.98230000       1.77300000
H        0.84400000       2.03350000       0.47310000
H       -0.18750000       1.93530000      -0.95560000
H       -0.90490000       1.89670000       0.65930000
H       -0.83260000      -0.45350000      -0.33370000
H        1.31470000      -1.57920000      -0.87950000
H        3.04630000       0.43930000      -0.80640000
H        1.47730000       0.34890000       2.85510000
H       -0.56380000      -1.70810000       2.61750000
H       -0.54570000      -2.49700000       1.03800000
H        0.83760000      -2.68240000       2.13800000
