16
Properties=species:S:1:pos:R:3 gdb_78890=T pbc="F F F"
O       -0.02750000       1.42290000       0.03920000
C        0.03280000       0.00630000      -0.04160000
C        0.61250000      -0.69550000       1.16070000
C        0.00830000      -2.04130000       1.32510000
C       -1.31460000      -2.01730000       0.53360000
C       -1.72570000      -0.87150000       1.43180000
N       -0.43690000      -0.92710000       2.22220000
C       -1.35080000      -0.61740000      -0.01960000
O       -2.29300000      -0.27670000      -0.96880000
H       -0.34170000       1.64510000       0.92420000
H        0.57730000      -0.22190000      -0.96300000
H        1.59950000      -0.45930000       1.54040000
H        0.52000000      -2.91660000       1.70900000
H       -1.88450000      -2.84920000       0.14620000
H       -2.66770000      -0.62490000       1.90200000
H       -2.28780000       0.68820000      -1.02020000
