12
Properties=species:S:1:pos:R:3 gdb_21692=T pbc="F F F"
N        0.05390000       1.33740000      -0.03650000
C       -0.01780000      -0.00700000       0.01650000
N       -1.18100000      -0.58700000       0.08400000
O       -1.13380000      -2.00000000       0.17890000
C        0.03840000      -2.62250000       0.18910000
N        1.21230000      -2.11540000       0.10870000
C        1.27910000      -0.73220000      -0.00050000
N        2.34930000      -0.04660000      -0.11940000
H        0.96490000       1.72600000      -0.22390000
H       -0.78120000       1.88350000      -0.15910000
H       -0.10860000      -3.69680000       0.27790000
H        3.15920000      -0.66890000      -0.12310000
