20
Properties=species:S:1:pos:R:3 gdb_79638=T pbc="F F F"
C       -0.17480000       1.54310000       0.00310000
N        0.01450000       0.10370000      -0.13220000
C        0.40960000      -0.68220000      -1.28080000
C        1.24620000      -0.17140000      -2.44640000
C        1.72960000       1.25840000      -2.50870000
C        2.61590000       0.19640000      -1.91540000
C        2.62140000      -0.04110000      -0.40340000
O        2.96850000       1.15960000       0.28590000
C        1.24800000      -0.64160000      -0.02890000
H       -0.81290000       1.90670000      -0.80770000
H       -0.70640000       1.72700000       0.94480000
H        0.75220000       2.12150000       0.02520000
H       -0.25630000      -1.51260000      -1.50940000
H        1.13530000      -0.71450000      -3.37840000
H        2.02130000       1.62150000      -3.48910000
H        1.29310000       2.01690000      -1.87980000
H        3.52000000      -0.06100000      -2.45550000
H        3.37430000      -0.81630000      -0.18930000
H        2.94740000       0.97320000       1.23040000
H        1.25740000      -1.43580000       0.71880000
