17
Properties=species:S:1:pos:R:3 gdb_44328=T pbc="F F F"
O        0.01920000       0.06440000       0.28830000
C       -0.00750000       1.24150000       0.05800000
C       -1.27440000       2.11160000      -0.10910000
C       -0.79870000       3.37300000      -0.80230000
C        0.15330000       4.36340000      -0.11690000
C        0.66880000       4.03930000       1.24190000
C        1.30850000       2.86520000       1.25390000
C        1.21390000       2.18270000      -0.10580000
C        0.69360000       3.28690000      -1.03940000
H       -2.00260000       1.56930000      -0.71930000
H       -1.73130000       2.26660000       0.87370000
H       -1.42890000       3.78990000      -1.57980000
H        0.08410000       5.39600000      -0.44120000
H        0.52310000       4.68450000       2.10010000
H        1.71640000       2.36340000       2.12290000
H        2.10630000       1.64070000      -0.41960000
H        1.15620000       3.49190000      -1.99610000
