21
Properties=species:S:1:pos:R:3 gdb_68486=T pbc="F F F"
C       -0.05800000       1.55300000       0.00960000
C        0.03720000       0.04040000      -0.02460000
C        0.72320000      -0.60210000      -1.25830000
C       -0.54500000      -1.47050000      -1.31650000
C       -0.38050000      -2.85080000      -0.68920000
O        0.51300000      -2.86670000       0.40990000
C        0.12720000      -2.03110000       1.49430000
C        0.51240000      -0.55460000       1.31250000
O       -1.23640000      -0.56720000      -0.41530000
H        0.91290000       1.99440000       0.26090000
H       -0.37760000       1.94280000      -0.96070000
H       -0.78320000       1.87370000       0.76490000
H        0.80730000       0.09120000      -2.09700000
H        1.66820000      -1.11970000      -1.09420000
H       -1.06730000      -1.55080000      -2.27710000
H       -1.37450000      -3.21950000      -0.38700000
H        0.03680000      -3.54790000      -1.42510000
H       -0.95670000      -2.10620000       1.65520000
H        0.63240000      -2.43220000       2.37910000
H        1.60040000      -0.43460000       1.38370000
H        0.07390000       0.00690000       2.14760000
