16
Properties=species:S:1:pos:R:3 gdb_18058=T pbc="F F F"
C        0.07330000       1.53970000       0.16840000
O        1.48610000       1.51770000      -0.13240000
C        1.41490000       0.13360000      -0.52970000
C        2.48110000      -0.75640000       0.08240000
O        2.20320000      -1.07640000       1.43680000
C        0.90150000      -1.56840000       1.56960000
O       -0.07150000      -0.57690000       1.35230000
C       -0.01470000       0.00950000       0.06370000
H       -0.13750000       1.94280000       1.16280000
H       -0.49910000       2.08390000      -0.59400000
H        1.43200000       0.03970000      -1.62530000
H        2.55900000      -1.68230000      -0.51270000
H        3.44800000      -0.24620000       0.06200000
H        0.74670000      -2.41990000       0.87900000
H        0.77860000      -1.89660000       2.60310000
H       -0.78960000      -0.41580000      -0.58400000
