18
Properties=species:S:1:pos:R:3 gdb_35333=T pbc="F F F"
N       -0.94200000      -0.41070000      -1.36920000
C       -0.46280000       0.43420000      -0.74150000
C        0.14640000       1.48100000       0.05840000
C       -0.12070000       1.48590000       1.59780000
C        1.36030000       1.87740000       1.80510000
C        1.74860000       3.30670000       2.24610000
C        2.48680000       2.59240000       3.39470000
O        2.07210000       1.29810000       2.90260000
C        1.67240000       1.37550000       0.37670000
H       -0.09510000       2.45110000      -0.38390000
H       -0.89610000       2.15680000       1.97300000
H       -0.29770000       0.47430000       1.97040000
H        2.38430000       3.85230000       1.54620000
H        0.91420000       3.94270000       2.54740000
H        3.57760000       2.69500000       3.40010000
H        2.10450000       2.78560000       4.40320000
H        1.99760000       0.33300000       0.40730000
H        2.35820000       1.95650000      -0.24330000
