22
Properties=species:S:1:pos:R:3 gdb_82537=T pbc="F F F"
C       -0.11640000       1.50600000      -0.00600000
N        0.10050000       0.07080000       0.09810000
C        1.38420000      -0.55180000      -0.15070000
C        2.57790000       0.27800000       0.36680000
C        1.91630000       0.27110000       1.75850000
C        2.62850000       0.06110000       3.06160000
C        1.88670000       1.35280000       2.80200000
C        0.75230000      -0.57000000       1.22790000
C        0.03060000      -1.64660000       1.98370000
H        0.69890000       2.13320000       0.37810000
H       -0.27890000       1.75830000      -1.05900000
H       -1.02690000       1.76350000       0.54470000
H        1.44160000      -1.33660000      -0.89860000
H        3.51230000      -0.28930000       0.34590000
H        2.74430000       1.24880000      -0.11210000
H        2.20040000      -0.63590000       3.77530000
H        3.71370000       0.08360000       3.06040000
H        2.47170000       2.24930000       2.62120000
H        0.96170000       1.52850000       3.34220000
H       -0.59860000      -1.22270000       2.77660000
H       -0.62050000      -2.20550000       1.30710000
H        0.73330000      -2.34310000       2.45270000
