15
Properties=species:S:1:pos:R:3 gdb_44882=T pbc="F F F"
O        0.04250000       0.06830000       0.06030000
C        0.01960000       1.26440000       0.04790000
C       -1.18580000       2.23780000       0.08490000
C       -0.36020000       3.53550000       0.02620000
O        0.63160000       3.21120000      -1.00780000
C        1.18440000       2.27360000      -0.02380000
C        0.75600000       3.29020000       1.04750000
C        1.51460000       4.17080000       1.91750000
O        0.65400000       3.12330000       2.43220000
H       -1.83410000       2.11640000      -0.78580000
H       -1.77230000       2.10750000       0.99850000
H       -0.86080000       4.49180000      -0.11490000
H        2.19630000       1.92400000      -0.21140000
H        2.57960000       4.00520000       2.06530000
H        1.16470000       5.18490000       2.10110000
