19
Properties=species:S:1:pos:R:3 gdb_69541=T pbc="F F F"
C       -0.04830000       1.46520000       0.05260000
C        0.08100000      -0.02530000      -0.03180000
O       -0.53700000      -0.80570000       1.01270000
C        0.88190000      -0.91350000       0.80860000
C        1.32680000      -1.98400000      -0.21040000
O        2.14220000      -2.96930000       0.33310000
C        0.01910000      -2.25460000      -1.00650000
C        0.19780000      -0.76070000      -1.39660000
C        1.73930000      -1.04240000      -1.40670000
H        0.69740000       1.95500000      -0.58280000
H       -1.03880000       1.78800000      -0.28750000
H        0.08710000       1.80770000       1.08150000
H        1.52490000      -0.62240000       1.63280000
H        2.38360000      -3.58560000      -0.36580000
H        0.19820000      -2.91240000      -1.86090000
H       -0.87200000      -2.54630000      -0.45500000
H       -0.31190000      -0.32800000      -2.25590000
H        2.41790000      -0.21100000      -1.19370000
H        2.07400000      -1.59090000      -2.29270000
