16
Properties=species:S:1:pos:R:3 gdb_55240=T pbc="F F F"
N        0.64750000      -0.31930000       0.49140000
C       -0.21700000       0.20600000      -0.40970000
O        0.06730000       1.06170000      -1.22520000
C       -1.65280000      -0.34350000      -0.32950000
C       -2.19650000      -0.77340000      -1.70470000
C       -1.90490000      -2.27640000      -1.71510000
C       -1.84070000      -2.65520000      -0.24090000
O       -1.86010000      -3.73630000       0.26460000
O       -1.73110000      -1.50980000       0.51020000
H        1.58830000       0.03680000       0.52470000
H        0.34130000      -1.00370000       1.16180000
H       -2.26650000       0.43300000       0.13510000
H       -3.27240000      -0.58850000      -1.75420000
H       -1.71000000      -0.20930000      -2.49980000
H       -2.64840000      -2.88830000      -2.22680000
H       -0.92940000      -2.50720000      -2.15820000
