17
Properties=species:S:1:pos:R:3 gdb_62487=T pbc="F F F"
C        0.12980000       1.55280000       0.07720000
C       -0.09340000       0.03060000      -0.02820000
O       -1.46070000      -0.27730000      -0.09850000
C        0.67130000      -0.54990000      -1.21290000
N        0.15060000      -0.53590000      -2.37480000
N        1.87710000      -1.02530000      -0.75670000
C        1.94410000      -1.19740000       0.68730000
C        0.59040000      -0.64780000       1.17200000
O        0.17120000      -0.73370000       2.29070000
H        1.18990000       1.81100000       0.17190000
H       -0.26480000       2.02730000      -0.82500000
H       -0.40780000       1.92630000       0.95210000
H       -1.64260000      -0.38520000      -1.04510000
H        0.72930000      -0.98730000      -3.08310000
H        2.48050000      -1.55190000      -1.36870000
H        2.04180000      -2.24620000       0.99280000
H        2.76730000      -0.63500000       1.14560000
