21
Properties=species:S:1:pos:R:3 gdb_119067=T pbc="F F F"
C        0.00180000       1.42320000      -0.00390000
O        0.17370000       0.02480000      -0.05950000
C        0.42910000      -0.55460000       1.21780000
C        0.50390000      -2.05350000       1.05570000
C       -0.76510000      -2.69480000       0.51870000
O       -0.96790000      -2.44360000      -0.85880000
C        1.83100000      -2.65730000       0.63130000
C        1.33390000      -2.82830000       2.04290000
O        1.92970000      -2.11130000       3.08820000
H        0.89890000       1.92140000       0.39380000
H       -0.17600000       1.77330000      -1.02330000
H       -0.85590000       1.70360000       0.62660000
H        1.36070000      -0.15620000       1.63990000
H       -0.38720000      -0.28840000       1.91040000
H       -0.71340000      -3.78390000       0.63210000
H       -1.62370000      -2.34860000       1.12070000
H       -0.79320000      -1.50120000      -0.98390000
H        1.81410000      -3.50660000      -0.04280000
H        2.65770000      -1.97050000       0.48300000
H        0.95560000      -3.80950000       2.33150000
H        2.80590000      -2.48100000       3.23800000
