23
Properties=species:S:1:pos:R:3 gdb_111869=T pbc="F F F"
C        0.08280000       0.96750000      -1.38600000
C       -0.15340000       0.39910000       0.01880000
C       -1.43120000      -0.40690000       0.11480000
C       -1.51440000      -1.89750000      -0.20880000
C       -0.29220000      -2.75820000      -0.50940000
C        0.12180000      -3.51950000       0.75790000
C        0.37930000      -2.53730000       1.89440000
O       -0.72250000      -1.68250000       2.19690000
C       -1.68020000      -1.41180000       1.21150000
H        0.99680000       1.56880000      -1.42390000
H        0.17410000       0.16670000      -2.12750000
H       -0.75050000       1.60760000      -1.69620000
H        0.70850000      -0.20430000       0.31920000
H       -0.20200000       1.22090000       0.74440000
H       -2.31330000       0.15770000      -0.18310000
H       -2.42590000      -2.21920000      -0.70320000
H       -0.52420000      -3.45810000      -1.31720000
H        0.55260000      -2.15400000      -0.86140000
H       -0.67250000      -4.21900000       1.04540000
H        1.03180000      -4.10640000       0.59080000
H        0.60760000      -3.06640000       2.82610000
H        1.26050000      -1.92370000       1.64530000
H       -2.67300000      -1.43940000       1.65270000
