20
Properties=species:S:1:pos:R:3 gdb_58821=T pbc="F F F"
C        0.18170000       1.55900000      -0.04570000
C        0.02620000       0.02840000      -0.01060000
C        0.54500000      -0.61620000      -1.30330000
C        0.66820000      -0.53560000       1.23000000
N        2.12180000      -0.73480000       1.43060000
C        1.18170000      -1.87570000       1.59890000
C        0.52220000      -1.74370000       3.01740000
O        1.03470000      -0.58270000       3.66950000
C        0.02760000      -0.41270000       2.67420000
H        1.23680000       1.83980000      -0.13060000
H       -0.35440000       1.98610000      -0.89920000
H       -0.21070000       2.02070000       0.86560000
H       -1.04790000      -0.19840000       0.06320000
H        1.59990000      -0.37650000      -1.47940000
H        0.44000000      -1.70540000      -1.28020000
H       -0.01650000      -0.24320000      -2.16500000
H        2.53300000      -0.84560000       0.50300000
H        1.27080000      -2.78240000       1.01490000
H        0.10560000      -2.53550000       3.62770000
H       -0.88040000       0.11480000       2.94350000
