15
Properties=species:S:1:pos:R:3 gdb_17870=T pbc="F F F"
O        0.04300000       0.01240000      -0.15650000
C        0.01390000       1.19310000       0.02460000
C       -1.08560000       2.27890000       0.03750000
C       -1.28810000       2.87270000       1.43990000
C        0.06240000       3.14720000       2.06310000
C        1.17700000       2.88780000       1.37860000
C        1.02560000       2.35920000      -0.03280000
N       -0.08460000       3.15050000      -0.69550000
H       -2.02260000       2.07450000      -0.48500000
H       -1.88600000       3.79140000       1.37730000
H       -1.86020000       2.16770000       2.05790000
H        0.09380000       3.54960000       3.07110000
H        2.16870000       3.02760000       1.79380000
H        1.95670000       2.25930000      -0.59050000
H       -0.10820000       2.88350000      -1.67970000
