19
Properties=species:S:1:pos:R:3 gdb_38558=T pbc="F F F"
C       -0.03020000       1.59040000       0.09150000
C        1.52750000       1.36280000      -0.02340000
C        1.88750000       0.68880000       1.31330000
C        0.97810000      -0.52240000       1.10170000
C        1.46290000      -1.30070000      -0.16240000
C        0.16820000      -2.06410000      -0.54540000
C       -0.83030000      -1.17870000      -0.40130000
C       -0.06760000       0.05850000       0.02940000
C        1.21060000       0.06950000      -0.86530000
H       -0.40780000       2.11050000       0.97800000
H       -0.44190000       2.04940000      -0.81210000
H        2.17790000       2.15250000      -0.39880000
H        2.94730000       0.42620000       1.39210000
H        1.61400000       1.29120000       2.18570000
H        0.61190000      -1.07980000       1.96470000
H        2.40360000      -1.85630000      -0.19170000
H        0.11820000      -3.10490000      -0.83340000
H       -1.89320000      -1.30680000      -0.54540000
H        1.11210000       0.15540000      -1.94790000
