18
Properties=species:S:1:pos:R:3 gdb_110756=T pbc="F F F"
C        0.29100000       0.85550000      -0.37610000
O       -0.39750000      -0.03570000       0.48660000
C        0.43240000      -0.67950000       1.37930000
C        0.11300000      -2.04840000       1.84830000
O       -0.51000000      -2.80810000       0.78590000
C        0.64460000      -2.69240000       0.01830000
N        0.94420000      -3.20390000      -1.08520000
C        1.37770000      -1.83600000       1.00610000
C        2.84940000      -1.88340000       1.29190000
H        1.02280000       0.32310000      -0.99740000
H       -0.46110000       1.31590000      -1.01960000
H        0.80970000       1.64370000       0.18950000
H        0.87910000      -0.03550000       2.14370000
H       -0.05140000      -2.39110000       2.86150000
H        0.17600000      -3.76680000      -1.45430000
H        3.41930000      -1.50600000       0.43670000
H        3.10150000      -1.26990000       2.16200000
H        3.18350000      -2.90720000       1.48720000
