17
Properties=species:S:1:pos:R:3 gdb_75402=T pbc="F F F"
C        0.00570000       1.52720000      -0.12470000
C       -0.01240000       0.02710000       0.01220000
C       -1.14620000      -0.68630000       0.00950000
C       -1.23470000      -2.18860000       0.06920000
N       -0.63510000      -2.77030000       1.27430000
C        0.60780000      -2.60240000       1.43940000
N        1.49690000      -1.84730000       0.66830000
C        1.34160000      -0.58610000       0.07950000
O        2.33610000       0.00010000      -0.30570000
H        0.56610000       1.82120000      -1.01680000
H       -1.00950000       1.92460000      -0.19110000
H        0.51230000       1.99600000       0.72580000
H       -2.08750000      -0.14480000      -0.05580000
H       -2.28220000      -2.49560000       0.03920000
H       -0.74510000      -2.62330000      -0.81690000
H        1.10060000      -3.11330000       2.26790000
H        2.48020000      -2.05010000       0.80070000
