14
Properties=species:S:1:pos:R:3 gdb_129962=T pbc="F F F"
N       -0.01730000       1.34050000       0.14170000
C       -0.04490000      -0.01370000       0.05390000
N       -1.16440000      -0.66400000       0.05130000
C       -1.08230000      -2.03630000       0.01750000
N       -2.06730000      -2.85250000      -0.03150000
C        0.28710000      -2.62470000       0.02480000
N        0.35210000      -3.97420000       0.07600000
N        1.38230000      -1.93090000      -0.00720000
O        1.19240000      -0.51930000       0.00110000
H        0.83680000       1.81330000      -0.10200000
H       -0.88870000       1.81210000      -0.03330000
H       -2.94500000      -2.33080000      -0.04150000
H       -0.52250000      -4.44770000      -0.09590000
H        1.22670000      -4.43340000      -0.11360000
