12
Properties=species:S:1:pos:R:3 gdb_3967=T pbc="F F F"
O       -0.11720000       1.35340000      -0.08440000
N        0.05410000      -0.03900000      -0.06150000
C       -1.07600000      -0.65200000       0.06360000
C       -1.13640000      -2.09310000       0.11000000
C       -2.33540000      -2.67440000       0.24070000
O       -3.51310000      -2.00750000       0.33430000
N       -3.51910000      -0.61160000       0.29550000
C       -2.38850000      -0.01440000       0.17080000
H        0.78780000       1.66720000      -0.17950000
H       -0.23420000      -2.68580000       0.04060000
H       -2.50720000      -3.74280000       0.28720000
H       -2.46240000       1.06640000       0.14740000
