22
Properties=species:S:1:pos:R:3 gdb_118649=T pbc="F F F"
C       -0.05560000       1.64190000       0.04510000
C        0.00150000       0.11350000      -0.01560000
C       -1.38960000      -0.52600000       0.03290000
C       -1.33360000      -2.05900000      -0.00290000
O       -0.66720000      -2.50950000       1.15200000
C       -0.33160000      -3.89370000       1.14480000
C        0.41030000      -4.20610000       2.43160000
C       -2.69880000      -2.63270000      -0.09120000
N       -3.76110000      -3.08330000      -0.15530000
H        0.94810000       2.07580000       0.00840000
H       -0.62790000       2.05400000      -0.79350000
H       -0.53250000       1.98360000       0.97020000
H        0.51100000      -0.19950000      -0.93680000
H        0.59800000      -0.27430000       0.81590000
H       -1.91570000      -0.22810000       0.94680000
H       -1.99770000      -0.18440000      -0.81250000
H       -0.79140000      -2.38380000      -0.90770000
H       -1.24470000      -4.50120000       1.06370000
H        0.29440000      -4.11680000       0.26580000
H        1.32070000      -3.60510000       2.50910000
H       -0.21960000      -3.99120000       3.29900000
H        0.68830000      -5.26370000       2.45800000
