17
Properties=species:S:1:pos:R:3 gdb_88646=T pbc="F F F"
C        0.53440000       1.49930000      -0.34040000
C       -0.04710000       0.20460000       0.16330000
O        0.78330000      -0.97120000       0.14760000
C        0.31510000      -0.49970000       1.40640000
C        1.34740000      -0.10860000       2.42920000
C        2.39390000      -1.19330000       2.77200000
C        3.38780000      -0.17320000       2.22300000
O        4.55780000      -0.07390000       2.05600000
O        2.41860000       0.76340000       1.93960000
H        1.54490000       1.66100000       0.02930000
H        0.55000000       1.49090000      -1.43530000
H       -0.09780000       2.33680000      -0.02530000
H       -1.05890000       0.00200000      -0.19670000
H       -0.45970000      -1.12460000       1.86290000
H        0.86520000       0.35390000       3.29560000
H        2.52760000      -1.43300000       3.82740000
H        2.32960000      -2.10730000       2.17970000
