15
Properties=species:S:1:pos:R:3 gdb_23909=T pbc="F F F"
C       -0.04390000       1.39000000      -0.04070000
O       -0.00400000      -0.01820000      -0.01150000
C        0.66880000      -0.52000000       1.11890000
C        0.64240000      -2.04230000       1.02790000
C        1.34000000      -2.70570000       2.19380000
F        0.77030000      -2.37880000       3.36750000
F        1.30130000      -4.04180000       2.08900000
F        2.63380000      -2.34660000       2.27070000
H        0.96710000       1.82570000      -0.06960000
H       -0.58150000       1.68200000      -0.94560000
H       -0.56980000       1.80090000       0.83530000
H        1.70960000      -0.15990000       1.14940000
H        0.17940000      -0.18690000       2.04810000
H       -0.39090000      -2.39880000       1.00470000
H        1.13350000      -2.37150000       0.10830000
