17
Properties=species:S:1:pos:R:3 gdb_51051=T pbc="F F F"
O       -0.27270000      -0.00650000      -0.37840000
C       -0.13930000       1.15220000      -0.12970000
O        1.06400000       1.77040000      -0.22980000
C        1.12560000       3.16070000       0.02300000
C        0.88030000       3.66790000       1.48680000
C        2.16910000       4.52360000       1.37460000
C        2.58420000       3.68410000       0.13710000
C        0.31460000       3.95050000      -0.98650000
O       -0.44000000       3.46340000      -1.78510000
H       -0.94490000       1.81420000       0.22930000
H       -0.06300000       4.17740000       1.69690000
H        0.99640000       2.83030000       2.17830000
H        1.95620000       5.56510000       1.12140000
H        2.84590000       4.50920000       2.22980000
H        3.23730000       2.84900000       0.39620000
H        2.99700000       4.20460000      -0.72980000
H        0.46820000       5.05110000      -0.92370000
