17
Properties=species:S:1:pos:R:3 gdb_71117=T pbc="F F F"
C        0.04800000       1.48650000       0.01470000
C       -0.03410000      -0.01730000      -0.00090000
O        0.69520000      -0.54520000      -1.13470000
C        1.02230000      -1.84510000      -0.75110000
C        1.00810000      -1.85960000       0.73330000
O        0.67340000      -0.56750000       1.13610000
C       -0.11310000      -2.61510000      -0.02710000
C       -1.42520000      -1.96150000      -0.03330000
C       -1.41090000      -0.62250000      -0.02000000
H        1.09270000       1.80160000       0.02630000
H       -0.44200000       1.89260000      -0.87370000
H       -0.45620000       1.87470000       0.90320000
H        1.72230000      -2.33730000      -1.41120000
H        1.69560000      -2.36490000       1.39680000
H       -0.04630000      -3.69640000      -0.03710000
H       -2.33550000      -2.55110000      -0.04770000
H       -2.29380000       0.00440000      -0.02230000
