20
Properties=species:S:1:pos:R:3 gdb_91096=T pbc="F F F"
O        0.45400000       0.91740000      -0.49410000
C        0.13780000      -0.22610000       0.27100000
C       -0.05060000      -0.02400000       1.80710000
C       -1.47610000      -0.62930000       1.69860000
C       -1.36180000      -0.60090000       0.14070000
C       -1.78550000      -1.99330000      -0.35530000
C       -1.85890000      -2.85310000       0.90660000
C       -0.63420000      -2.99010000       1.73010000
N       -1.67430000      -2.02760000       2.12250000
H        1.36840000       1.15810000      -0.31310000
H        0.81410000      -1.05730000       0.02030000
H        0.64760000      -0.52970000       2.47840000
H       -0.07680000       1.04090000       2.05200000
H       -2.27310000      -0.03500000       2.14980000
H       -1.89980000       0.21280000      -0.34890000
H       -2.77210000      -1.94970000      -0.82720000
H       -1.09210000      -2.40290000      -1.09810000
H       -2.63020000      -3.61700000       0.95710000
H       -0.52150000      -3.82800000       2.41310000
H        0.30530000      -2.63480000       1.31490000
