17
Properties=species:S:1:pos:R:3 gdb_71440=T pbc="F F F"
C       -0.02060000       1.50530000      -0.02550000
C       -0.02910000       0.00460000      -0.00820000
C       -1.27190000      -0.87950000      -0.11480000
C       -0.47090000      -2.04000000       0.58510000
C        0.60020000      -0.99500000       0.98330000
C        1.18960000      -0.82460000      -0.37380000
O        1.05950000      -1.99730000      -1.16380000
C        0.16780000      -2.83860000      -0.54060000
O       -0.05820000      -3.94480000      -0.93050000
H        0.97300000       1.90240000       0.20690000
H       -0.30770000       1.88640000      -1.01250000
H       -0.72330000       1.91480000       0.70870000
H       -2.06220000      -0.52030000       0.54830000
H       -1.69170000      -1.07620000      -1.10710000
H       -0.98510000      -2.64490000       1.32540000
H        1.10310000      -0.86940000       1.93330000
H        2.13530000      -0.32460000      -0.53510000
