20
Properties=species:S:1:pos:R:3 gdb_78594=T pbc="F F F"
C       -0.12270000       1.54790000       0.04020000
N        0.09040000       0.10220000       0.02410000
C        0.65580000      -0.54810000      -1.14660000
C        2.20980000      -0.58870000      -1.03320000
C        2.56030000       0.01850000       0.30420000
O        2.86990000       1.39530000       0.33110000
C        1.17710000      -0.53090000       0.81000000
C        1.31610000      -1.61400000      -0.33990000
C        1.27240000      -3.10530000      -0.34910000
H        0.73420000       2.13940000      -0.29960000
H       -0.99010000       1.77300000      -0.59080000
H       -0.37340000       1.85400000       1.06200000
H        0.14540000      -0.61480000      -2.10050000
H        2.85700000      -0.74330000      -1.88740000
H        3.36130000      -0.57030000       0.77480000
H        3.12760000       1.63200000       1.22780000
H        0.98950000      -0.69910000       1.87110000
H        0.32660000      -3.47830000       0.05910000
H        1.36860000      -3.48660000      -1.37140000
H        2.08740000      -3.53900000       0.24180000
