21
Properties=species:S:1:pos:R:3 gdb_121258=T pbc="F F F"
C       -0.05470000       1.55370000       0.13860000
C       -0.04550000       0.02450000       0.07080000
C       -1.45440000      -0.57390000      -0.00040000
C       -1.46520000      -2.09760000      -0.06320000
O       -0.83090000      -2.61650000       1.11190000
C       -1.43320000      -3.84340000       1.50280000
C       -2.82530000      -3.81900000       0.91170000
O       -3.52470000      -2.59910000       1.18410000
C       -2.84290000      -2.73450000      -0.06890000
H        0.96160000       1.95660000       0.18970000
H       -0.54150000       1.98870000      -0.74190000
H       -0.59750000       1.90670000       1.02250000
H        0.53140000      -0.30120000      -0.80550000
H        0.46730000      -0.38680000       0.94630000
H       -2.04080000      -0.27080000       0.87440000
H       -1.97640000      -0.18990000      -0.88760000
H       -0.92850000      -2.44090000      -0.96640000
H       -0.88370000      -4.71430000       1.10830000
H       -1.42140000      -3.89090000       2.59690000
H       -3.42740000      -4.72020000       0.83740000
H       -3.46140000      -2.72860000      -0.96240000
