12
Properties=species:S:1:pos:R:3 gdb_25369=T pbc="F F F"
O        0.07890000      -0.08270000      -0.00220000
C        0.03890000       1.12380000       0.00840000
C        1.20740000       2.00230000       0.00230000
C        1.29990000       3.37260000       0.01270000
C        2.68150000       3.68280000      -0.00040000
C        3.33290000       2.47460000      -0.01810000
O        2.44740000       1.44850000      -0.01660000
C        4.71120000       2.16190000      -0.03650000
N        5.84700000       1.93740000      -0.05140000
H       -0.91750000       1.68840000       0.02410000
H        0.47260000       4.06510000       0.02790000
H        3.14780000       4.65480000       0.00240000
