15
Properties=species:S:1:pos:R:3 gdb_75780=T pbc="F F F"
O        0.15300000       0.90530000      -0.77180000
C        0.03400000      -0.24800000       0.00500000
C       -0.00940000      -0.10330000       1.53250000
O        0.48610000       0.70550000       2.26180000
C       -1.12890000      -1.14340000       1.65360000
C       -1.41570000      -0.87820000       0.14000000
O       -2.36640000       0.16180000       0.04760000
C       -1.72220000      -2.01990000      -0.70650000
C       -1.95520000      -2.96180000      -1.41620000
H        0.26280000       1.65050000      -0.16740000
H        0.75320000      -1.01190000      -0.31470000
H       -0.75100000      -2.15150000       1.84290000
H       -1.94760000      -0.90940000       2.33470000
H       -2.08690000       0.71400000      -0.69680000
H       -2.17230000      -3.79230000      -2.04190000
