21
Properties=species:S:1:pos:R:3 gdb_41540=T pbc="F F F"
C       -0.02420000       1.49760000       0.38050000
C        1.44940000       1.63900000      -0.10870000
C        1.45520000       0.13890000      -0.53330000
C       -0.02330000      -0.00300000      -0.04250000
C       -0.70050000      -0.36110000      -1.35950000
C       -0.06400000       0.47450000      -2.52010000
C       -0.26680000      -0.72270000      -3.47710000
C        0.23240000      -1.34300000      -2.15290000
C        1.26830000      -0.17210000      -2.01300000
H       -0.14850000       1.65720000       1.45410000
H       -0.75680000       2.12060000      -0.14050000
H        1.60980000       2.34780000      -0.92610000
H        2.15650000       1.87860000       0.68900000
H        2.21660000      -0.48320000      -0.05650000
H       -0.23270000      -0.71840000       0.75650000
H       -1.77950000      -0.53240000      -1.37510000
H       -0.23650000       1.53130000      -2.73390000
H       -1.29610000      -0.94920000      -3.77080000
H        0.40760000      -0.78570000      -4.33630000
H        0.40780000      -2.39770000      -1.92930000
H        2.13730000      -0.15630000      -2.67520000
