18
Properties=species:S:1:pos:R:3 gdb_8907=T pbc="F F F"
C        0.08920000       1.58510000      -0.02350000
C        0.02210000       0.05600000       0.04180000
C        0.75940000      -0.48890000       1.26710000
O        2.12350000      -0.10500000       1.16690000
C       -1.43130000      -0.47910000       0.03620000
O       -2.17360000      -0.04580000       1.17700000
C       -2.12790000      -0.15550000      -1.21200000
C       -2.70460000       0.14240000      -2.22420000
H        1.13040000       1.91160000      -0.01170000
H       -0.38860000       1.96390000      -0.93120000
H       -0.40740000       2.03640000       0.84360000
H        0.51510000      -0.35710000      -0.84770000
H        0.29230000      -0.09130000       2.17940000
H        0.66130000      -1.58670000       1.29770000
H        2.56230000      -0.34050000       1.98910000
H       -1.39070000      -1.57150000       0.13570000
H       -2.45950000       0.85880000       1.01120000
H       -3.21880000       0.38880000      -3.12040000
