12
Properties=species:S:1:pos:R:3 gdb_132125=T pbc="F F F"
N        0.03870000       1.47720000      -0.12930000
C        0.00510000       0.06860000      -0.04050000
C       -1.11300000      -0.69370000      -0.18630000
F       -2.30410000      -0.16750000      -0.37830000
O       -1.12350000      -1.99750000      -0.18930000
C        0.12480000      -2.75910000       0.04100000
O       -0.00850000      -3.93900000       0.07160000
N        1.25490000      -2.00880000       0.17650000
C        1.18550000      -0.70650000       0.12160000
H       -0.87870000       1.86300000      -0.31500000
H        0.40640000       1.90980000       0.71080000
H        2.12900000      -0.16770000       0.21520000
