13
Properties=species:S:1:pos:R:3 gdb_131947=T pbc="F F F"
C        0.06420000       1.52840000       0.00890000
C       -0.06370000       0.05100000       0.00150000
C       -1.12640000      -0.81650000       0.00250000
C       -0.55430000      -2.11370000      -0.00770000
N        0.74850000      -2.05160000      -0.01410000
O        1.05370000      -0.67550000      -0.00850000
N       -2.51550000      -0.48430000       0.01170000
O       -3.31280000      -1.41530000       0.01050000
O       -2.81250000       0.70850000       0.01990000
H        1.11850000       1.80900000       0.00100000
H       -0.44120000       1.95570000      -0.86120000
H       -0.42490000       1.94560000       0.89310000
H       -1.06060000      -3.06670000      -0.01010000
