19
Properties=species:S:1:pos:R:3 gdb_2034=T pbc="F F F"
C       -0.08250000       1.56860000       0.05470000
C        0.03010000       0.04490000       0.03150000
C       -1.33810000      -0.59180000      -0.22030000
C        1.12980000      -0.57580000      -0.91160000
C        1.75330000      -1.28270000       0.29720000
C        2.19050000      -0.26920000       1.31530000
C        0.73370000      -0.62910000       1.23090000
H        0.88140000       2.04870000       0.24710000
H       -0.45460000       1.94670000      -0.90480000
H       -0.78040000       1.89790000       0.83350000
H       -1.74990000      -0.27170000      -1.18430000
H       -1.27070000      -1.68480000      -0.22700000
H       -2.05320000      -0.30620000       0.56040000
H        0.70260000      -1.25500000      -1.65350000
H        1.78330000       0.13620000      -1.42810000
H        2.12860000      -2.29870000       0.30540000
H        2.71040000      -0.66970000       2.18030000
H        2.55080000       0.70740000       1.00080000
H        0.20930000      -1.06230000       2.07620000
