18
Properties=species:S:1:pos:R:3 gdb_114583=T pbc="F F F"
C        0.33940000       1.01980000      -0.36610000
O       -0.35710000       0.15980000       0.51570000
C        0.48620000      -0.56980000       1.35910000
C       -0.24110000      -1.58190000       2.26310000
N        0.56900000      -2.74110000       1.74450000
C        0.28610000      -2.79790000       0.30810000
C        1.25700000      -1.76780000       0.75910000
C        2.64810000      -1.78860000       0.46020000
C        3.82290000      -1.75520000       0.19940000
H        1.00090000       0.46020000      -1.04200000
H       -0.40940000       1.55020000      -0.95820000
H        0.94700000       1.75320000       0.18540000
H        1.16410000       0.09530000       1.91160000
H       -0.05820000      -1.43870000       3.32870000
H       -1.31510000      -1.67650000       2.07880000
H        0.70300000      -3.67560000      -0.17450000
H       -0.68590000      -2.47610000      -0.06000000
H        4.86040000      -1.73990000      -0.02610000
