19
Properties=species:S:1:pos:R:3 gdb_108851=T pbc="F F F"
C       -0.23010000       1.53900000      -0.03830000
C        0.07580000       0.03170000       0.03930000
C        0.79940000      -0.47000000      -1.17290000
C        2.07310000      -0.86860000      -1.30100000
C        2.44940000      -1.29990000      -2.70150000
O        3.05940000      -2.58460000      -2.73350000
C        1.12540000      -1.18160000      -3.48770000
C        0.12020000      -0.58360000      -2.49780000
O       -1.02040000      -0.26040000      -2.74030000
H        0.69270000       2.12380000      -0.10600000
H       -0.84360000       1.75900000      -0.91500000
H       -0.77430000       1.86490000       0.85290000
H        0.66320000      -0.18770000       0.93730000
H       -0.87190000      -0.51270000       0.12800000
H        2.80490000      -0.90960000      -0.49960000
H        3.21380000      -0.63220000      -3.11500000
H        2.46290000      -3.20240000      -2.29530000
H        1.19290000      -0.55840000      -4.38340000
H        0.78380000      -2.16930000      -3.81380000
