13
Properties=species:S:1:pos:R:3 gdb_27598=T pbc="F F F"
N       -0.01930000       1.32590000       0.00810000
C        0.00530000      -0.02060000       0.00090000
N       -1.17840000      -0.65870000       0.00390000
C       -1.08540000      -1.98830000      -0.00350000
N        0.05520000      -2.69950000      -0.01350000
C        1.15370000      -1.94350000      -0.01550000
N        1.21380000      -0.61890000      -0.00880000
C       -2.31420000      -2.72760000      -0.00090000
C       -3.34220000      -3.35040000       0.00120000
H        0.84600000       1.83530000       0.00610000
H       -0.90210000       1.80440000       0.01540000
H        2.10530000      -2.47180000      -0.02340000
H       -4.24970000      -3.90270000       0.00300000
