17
Properties=species:S:1:pos:R:3 gdb_47646=T pbc="F F F"
N       -0.00050000       1.34270000      -0.19320000
C       -0.02270000       0.09160000      -0.03240000
C       -1.29790000      -0.70140000       0.07790000
C       -1.22290000      -1.76320000       1.18840000
N       -0.96600000      -1.14810000       2.48730000
C        0.21790000      -1.01070000       2.88910000
O        1.37160000      -1.43880000       2.25290000
C        1.87800000      -0.63270000       1.20830000
O        1.11530000      -0.71020000       0.02710000
H        0.95920000       1.68450000      -0.28130000
H       -2.11820000      -0.00060000       0.24400000
H       -1.47980000      -1.21440000      -0.87500000
H       -2.18730000      -2.27510000       1.24770000
H       -0.45140000      -2.49670000       0.92890000
H        0.41960000      -0.56940000       3.86590000
H        1.95550000       0.41190000       1.53990000
H        2.85980000      -1.04260000       0.97180000
