19
Properties=species:S:1:pos:R:3 gdb_9371=T pbc="F F F"
C        0.02620000       1.43590000      -0.08680000
N        0.03880000      -0.01040000      -0.05010000
C       -1.04230000      -0.66350000       0.00740000
C       -2.46820000      -0.16100000       0.05340000
O       -1.02150000      -2.02100000       0.03830000
C        0.26280000      -2.65740000      -0.02820000
C       -0.01100000      -4.15080000      -0.02690000
O       -0.78210000      -4.55170000      -1.14340000
H        0.60010000       1.82640000       0.76210000
H        0.53710000       1.78020000      -0.99390000
H       -0.96930000       1.90010000      -0.06430000
H       -2.71930000       0.37860000      -0.86480000
H       -3.15590000      -0.99910000       0.16580000
H       -2.61260000       0.52750000       0.89040000
H        0.77560000      -2.34620000      -0.94370000
H        0.87630000      -2.35250000       0.82650000
H        0.94000000      -4.69050000      -0.08520000
H       -0.49810000      -4.43130000       0.92080000
H       -1.55740000      -3.97940000      -1.15230000
