18
Properties=species:S:1:pos:R:3 gdb_113019=T pbc="F F F"
C       -0.27840000       1.24150000       0.02630000
O        0.14480000      -0.10310000       0.05220000
C        0.78530000      -0.52890000      -1.14700000
C        1.33010000      -1.95700000      -0.90300000
N        0.47490000      -2.82200000      -1.72830000
C        0.48400000      -4.18760000      -1.72880000
O       -0.20380000      -4.88360000      -2.44470000
C       -0.32350000      -2.02820000      -2.55420000
C       -0.16150000      -0.72460000      -2.31390000
H        0.55710000       1.92600000      -0.19170000
H       -1.07120000       1.41700000      -0.71490000
H       -0.67290000       1.47300000       1.01840000
H        1.59940000       0.17610000      -1.37540000
H        2.37370000      -2.04480000      -1.22010000
H        1.25300000      -2.20580000       0.15740000
H        1.20200000      -4.59300000      -0.99020000
H       -0.95340000      -2.53400000      -3.27120000
H       -0.66620000       0.07410000      -2.83620000
