17
Properties=species:S:1:pos:R:3 gdb_19984=T pbc="F F F"
C       -0.19050000      -1.22790000       0.07180000
C       -0.08320000      -0.03030000       0.06350000
C        0.02770000       1.40140000       0.01280000
N        0.56830000       2.09220000       1.21090000
C        1.35050000       2.11050000      -0.02860000
C        2.65320000       1.38630000      -0.02890000
C        3.52740000       1.42410000      -1.25810000
C        3.94500000       2.16730000      -0.01520000
H       -0.28410000      -2.28530000       0.09080000
H       -0.78690000       1.89260000      -0.51600000
H        0.07630000       2.97210000       1.34360000
H        1.35140000       3.03570000      -0.60650000
H        2.63740000       0.45890000       0.53290000
H        4.06320000       0.52210000      -1.53070000
H        3.18540000       2.00790000      -2.10680000
H        3.88420000       3.25090000      -0.02740000
H        4.76960000       1.77790000       0.57110000
