14
Properties=species:S:1:pos:R:3 gdb_30182=T pbc="F F F"
C       -0.48540000       1.48880000      -0.01880000
C        0.22850000       0.16680000       0.01980000
O        1.14200000       0.05050000      -1.14790000
C        2.19560000      -0.54660000      -0.55180000
C        2.15380000      -0.56940000       0.77840000
O        1.00470000       0.03390000       1.23910000
N        3.32120000      -1.05380000       1.29190000
C        4.01480000      -1.30850000       0.21530000
O        3.37790000      -1.00560000      -0.98560000
H        0.23810000       2.30540000       0.02970000
H       -1.06520000       1.57130000      -0.94140000
H       -1.16450000       1.55990000       0.83450000
H       -0.44700000      -0.69800000      -0.04470000
H        4.99030000      -1.75360000       0.12710000
