22
Properties=species:S:1:pos:R:3 gdb_87957=T pbc="F F F"
C       -0.06750000       1.53730000      -0.06710000
C       -0.02370000       0.03370000       0.06130000
N        1.27620000      -0.61770000      -0.18120000
C        0.67360000      -0.66680000       1.17580000
C        1.40680000       0.03270000       2.32970000
C        1.51620000      -1.03830000       3.44730000
C        0.63000000      -2.17420000       2.97510000
C        0.36330000      -3.36580000       3.83780000
C        0.18080000      -1.94940000       1.73680000
H        0.84690000       1.98870000       0.32540000
H       -0.16300000       1.83350000      -1.11740000
H       -0.92220000       1.95190000       0.47900000
H       -0.90570000      -0.47480000      -0.33020000
H        1.14600000      -1.51130000      -0.65130000
H        2.37940000       0.40470000       2.00200000
H        0.82820000       0.89240000       2.68230000
H        2.54720000      -1.39100000       3.58890000
H        1.19570000      -0.65250000       4.42310000
H       -0.12630000      -3.07460000       4.77620000
H       -0.27440000      -4.09810000       3.33520000
H        1.29910000      -3.86550000       4.12070000
H       -0.45640000      -2.62210000       1.16990000
