16
Properties=species:S:1:pos:R:3 gdb_79782=T pbc="F F F"
O        0.10320000       1.43820000      -0.09290000
C       -0.01440000       0.05630000       0.02840000
C        0.21130000      -0.67330000       1.37510000
C       -0.75620000      -0.13870000       2.48160000
O       -1.62800000       0.90090000       1.94980000
C       -2.31130000      -0.12170000       1.16810000
C       -1.38910000      -0.65580000       0.02330000
N       -0.81470000      -1.74320000       0.95260000
C       -1.73930000      -1.25120000       2.05370000
H       -0.47080000       1.80920000       0.59150000
H        0.62370000      -0.40100000      -0.73310000
H        1.20570000      -0.99790000       1.68510000
H       -0.38680000       0.09350000       3.48000000
H       -3.35440000       0.12600000       0.97350000
H       -1.86510000      -0.96430000      -0.90860000
H       -2.28410000      -1.94720000       2.68960000
