21
Properties=species:S:1:pos:R:3 gdb_6745=T pbc="F F F"
C        0.27640000       0.82240000      -0.87910000
C       -0.34210000       0.27750000       0.41320000
N       -1.47440000      -0.62850000       0.32700000
C       -1.93210000      -0.98130000      -0.78900000
O       -2.95720000      -1.85790000      -0.85520000
C       -3.54250000      -2.07930000      -2.14890000
C       -4.10610000      -3.49420000      -2.13490000
C       -4.60350000      -1.01730000      -2.43130000
H        1.10960000       1.48770000      -0.63340000
H        0.66890000       0.02160000      -1.51510000
H       -0.44610000       1.39980000      -1.46630000
H        0.43590000      -0.23660000       0.99400000
H       -0.65560000       1.12070000       1.04350000
H       -1.56390000      -0.65840000      -1.77230000
H       -2.74840000      -2.01280000      -2.90760000
H       -4.87540000      -3.58890000      -1.36260000
H       -4.55520000      -3.73570000      -3.10280000
H       -3.31730000      -4.22060000      -1.92360000
H       -5.06270000      -1.18340000      -3.41090000
H       -5.38660000      -1.05340000      -1.66800000
H       -4.16660000      -0.01410000      -2.42510000
