18
Properties=species:S:1:pos:R:3 gdb_14054=T pbc="F F F"
C       -0.05850000       1.50440000      -0.08890000
O        1.35160000       1.65200000       0.17270000
C        1.49000000       0.24360000       0.44410000
C        0.04150000      -0.03830000      -0.00570000
C       -0.94130000      -0.79360000       0.91070000
C       -1.84340000      -1.57990000      -0.07660000
O       -1.50800000      -1.11930000      -1.38170000
C       -0.13610000      -0.77530000      -1.33720000
H       -0.66890000       1.96590000       0.69980000
H       -0.34920000       1.92600000      -1.05890000
H        2.28340000      -0.21810000      -0.15860000
H        1.69150000       0.04670000       1.50610000
H       -0.40950000      -1.47210000       1.58470000
H       -1.51550000      -0.10260000       1.53320000
H       -1.65630000      -2.66160000       0.00470000
H       -2.91240000      -1.40750000       0.07220000
H        0.09590000      -0.16780000      -2.21600000
H        0.50260000      -1.67720000      -1.35870000
