20
Properties=species:S:1:pos:R:3 gdb_23217=T pbc="F F F"
C       -0.12230000       1.56660000       0.00330000
C        0.04250000       0.04360000      -0.00720000
C        0.96200000      -0.52760000      -1.12070000
C        1.17060000      -1.99510000      -0.64810000
C        1.94680000      -1.29560000       0.52110000
C        2.39210000      -0.25920000      -0.56250000
C        0.81290000      -0.55280000       1.17510000
N        0.60940000      -0.52800000       2.42730000
O       -0.56190000       0.20000000       2.74550000
H        0.84210000       2.07990000       0.06330000
H       -0.62210000       1.89870000      -0.91300000
H       -0.72100000       1.87950000       0.86010000
H       -0.95280000      -0.41550000      -0.05810000
H        0.69110000      -0.28540000      -2.14870000
H        0.28820000      -2.58950000      -0.39460000
H        1.83910000      -2.56140000      -1.30040000
H        2.64510000      -1.81980000       1.17010000
H        3.17450000      -0.65940000      -1.21130000
H        2.65510000       0.74940000      -0.23550000
H       -0.57540000       0.14280000       3.70630000
