17
Properties=species:S:1:pos:R:3 gdb_107596=T pbc="F F F"
C        0.02630000       1.34030000       0.31760000
O       -0.02490000       0.02500000      -0.23570000
C       -1.26160000      -0.56940000      -0.15210000
C       -1.76740000      -1.17080000       1.14870000
C       -1.43480000      -2.05720000      -0.02200000
C       -2.59530000      -2.41580000      -0.93040000
O       -3.17200000      -1.16920000      -1.36900000
C       -2.35610000      -0.11350000      -1.08450000
O       -2.53330000       0.97960000      -1.54060000
H        1.05550000       1.68300000       0.19590000
H       -0.65500000       2.01440000      -0.20880000
H       -0.22610000       1.32650000       1.38680000
H       -1.04700000      -1.16260000       1.95900000
H       -2.80280000      -1.03060000       1.44370000
H       -0.57620000      -2.71390000       0.03150000
H       -2.26410000      -2.97090000      -1.81460000
H       -3.38220000      -2.98670000      -0.42840000
