15
Properties=species:S:1:pos:R:3 gdb_22948=T pbc="F F F"
O       -0.14400000       1.37380000      -0.02600000
N        0.03300000      -0.00800000       0.10390000
C       -1.06830000      -0.61930000       0.03270000
C       -2.53280000      -0.33160000      -0.18130000
O       -2.79480000      -1.75920000      -0.17550000
C       -1.40930000      -2.09000000       0.07920000
C       -0.78430000      -2.96780000      -1.01280000
C       -1.31600000      -4.32840000      -1.00690000
N       -1.73330000      -5.40540000      -0.99000000
H        0.75640000       1.70900000       0.05070000
H       -3.03720000       0.19150000       0.64000000
H       -2.79760000       0.14560000      -1.13220000
H       -1.28610000      -2.56480000       1.06090000
H       -0.96090000      -2.51300000      -1.99260000
H        0.29960000      -3.00380000      -0.85490000
