17
Properties=species:S:1:pos:R:3 gdb_128815=T pbc="F F F"
C        0.19660000       1.42510000       0.00000000
O        0.31490000       0.02870000      -0.12030000
C        0.50160000      -0.60870000       1.12910000
C        0.54890000      -2.08770000       0.91830000
N        1.44400000      -2.82750000       1.56090000
N        1.16920000      -4.09890000       1.16430000
C        0.14180000      -4.15570000       0.28860000
O       -0.22630000      -5.36070000      -0.19780000
C       -0.30440000      -2.86610000       0.09610000
H        1.10270000       1.87800000       0.43320000
H        0.04690000       1.82870000      -1.00440000
H       -0.66110000       1.71150000       0.63060000
H        1.43480000      -0.28330000       1.61360000
H       -0.32850000      -0.34160000       1.80780000
H        1.72240000      -4.86720000       1.50250000
H       -0.95860000      -5.23430000      -0.80890000
H       -1.10050000      -2.52690000      -0.54510000
