23
Properties=species:S:1:pos:R:3 gdb_120681=T pbc="F F F"
C       -0.23460000       1.51640000       0.07290000
C       -0.23120000      -0.00220000      -0.12100000
C        0.91460000      -0.48780000      -1.01870000
C        0.92490000      -1.98920000      -1.20210000
C        0.07140000      -2.64760000      -2.24870000
C        1.58610000      -2.64040000      -2.41320000
C        2.20640000      -1.85460000      -3.44140000
C        2.74320000      -1.20720000      -4.30540000
C        3.38960000      -0.42930000      -5.35290000
H        0.69900000       1.85930000       0.53290000
H       -0.33900000       2.03710000      -0.88560000
H       -1.05980000       1.83620000       0.71700000
H       -0.16070000      -0.49650000       0.85720000
H       -1.18770000      -0.32290000      -0.55320000
H        0.84740000      -0.00360000      -2.00020000
H        1.87400000      -0.16690000      -0.59020000
H        1.04930000      -2.55110000      -0.27890000
H       -0.40620000      -3.59570000      -2.02760000
H       -0.48990000      -2.00350000      -2.91700000
H        2.07920000      -3.58810000      -2.21400000
H        4.10520000      -1.04020000      -5.91470000
H        2.65930000      -0.03740000      -6.07010000
H        3.93910000       0.42480000      -4.94070000
