18
Properties=species:S:1:pos:R:3 gdb_84166=T pbc="F F F"
C        0.20320000       1.49600000       0.01310000
C        0.04730000      -0.03730000       0.01330000
N        0.57530000      -0.61090000      -1.22230000
C        1.79630000      -0.96920000      -1.20970000
N        2.44330000      -1.35910000      -2.36500000
C        2.66890000      -0.89830000       0.02370000
O        1.92480000      -1.09010000       1.22010000
C        0.63370000      -0.64320000       1.27500000
N       -0.05110000      -0.74380000       2.33390000
H        1.25730000       1.79270000       0.03910000
H       -0.23980000       1.90510000      -0.89860000
H       -0.29910000       1.92540000       0.88340000
H       -1.02170000      -0.25940000       0.05280000
H        1.81940000      -1.48950000      -3.15000000
H        3.14380000      -2.08000000      -2.27650000
H        3.43990000      -1.67570000       0.01900000
H        3.18420000       0.07240000       0.04800000
H        0.50790000      -1.16010000       3.08180000
