18
Properties=species:S:1:pos:R:3 gdb_73618=T pbc="F F F"
C       -0.19090000       1.62980000       0.09140000
C        0.04880000       0.14280000       0.07850000
C       -1.03520000      -0.79720000      -0.44190000
O       -0.65730000      -2.09920000      -0.02490000
C        0.03720000      -1.99320000       1.21660000
C        0.73320000      -0.64450000       1.17010000
N        1.41210000      -0.34220000      -0.06900000
C        1.91060000      -1.27890000      -0.96030000
O        2.58800000      -2.22620000      -0.64520000
H        0.64470000       2.14900000       0.56600000
H       -0.29440000       2.01910000      -0.92740000
H       -1.10940000       1.86970000       0.63690000
H       -2.00240000      -0.49140000      -0.00890000
H       -1.13760000      -0.81300000      -1.53150000
H       -0.65670000      -2.01690000       2.07150000
H        0.72200000      -2.84170000       1.27850000
H        1.11300000      -0.19170000       2.08060000
H        1.69390000      -1.00860000      -2.01200000
