17
Properties=species:S:1:pos:R:3 gdb_19067=T pbc="F F F"
C       -0.00380000       1.43950000      -0.18260000
C        1.30220000       0.75270000       0.02500000
C        2.02960000       0.78450000       1.35540000
C        1.13240000       1.15670000       2.55300000
C        0.74230000      -0.32770000       2.43250000
C       -0.33110000      -0.56040000       1.36040000
N        0.03870000      -0.00430000       0.04280000
O        2.04580000      -0.60170000       1.83840000
H       -0.38520000       2.09550000       0.59480000
H       -0.29880000       1.72910000      -1.18860000
H        1.93740000       0.54750000      -0.83490000
H        3.03380000       1.20870000       1.28530000
H        1.73440000       1.34060000       3.44410000
H        0.36830000       1.92760000       2.45460000
H        0.56210000      -0.91910000       3.33460000
H       -0.45300000      -1.64110000       1.22470000
H       -1.29800000      -0.15760000       1.68640000
