16
Properties=species:S:1:pos:R:3 gdb_28369=T pbc="F F F"
C        0.01100000       1.50030000       0.06720000
C       -0.07400000       0.02010000      -0.10220000
N        0.10960000      -0.58650000      -1.20820000
C        0.01190000      -1.96820000      -1.21770000
C       -0.26270000      -2.69840000      -0.10550000
N       -0.31120000      -4.07050000      -0.01430000
C       -0.49960000      -1.97970000       1.14540000
N       -0.81140000      -2.58000000       2.22170000
O       -0.37490000      -0.61030000       1.07980000
H        0.78760000       1.76260000       0.79380000
H        0.24300000       1.95720000      -0.89410000
H       -0.93490000       1.90220000       0.44580000
H        0.17840000      -2.44490000      -2.17850000
H       -0.51890000      -4.57880000      -0.85920000
H       -0.77920000      -4.40240000       0.81790000
H       -0.94970000      -1.92390000       2.98900000
