17
Properties=species:S:1:pos:R:3 gdb_42845=T pbc="F F F"
O       -0.06420000      -0.02140000       0.16810000
C       -0.04960000       1.16330000       0.02560000
C       -1.09450000       2.29740000       0.08740000
C        0.01960000       3.01110000       0.94070000
C        1.02330000       2.26570000      -0.01620000
C        0.67190000       2.95130000      -1.34970000
O        0.61840000       2.08640000      -2.50280000
C       -0.82950000       2.15450000      -2.55370000
C       -0.88400000       3.00320000      -1.26610000
H       -2.10670000       2.13360000       0.45080000
H        0.02890000       4.10300000       0.89610000
H        0.07260000       2.66570000       1.97380000
H        2.06630000       2.08460000       0.23200000
H        1.24410000       3.86390000      -1.54160000
H       -1.17080000       2.67510000      -3.45610000
H       -1.29000000       1.16100000      -2.51090000
H       -1.38750000       3.96790000      -1.33170000
