20
Properties=species:S:1:pos:R:3 gdb_17970=T pbc="F F F"
C       -0.10570000       1.57780000       0.01350000
C        1.28180000       2.22980000      -0.00590000
O        1.93710000       2.09170000      -1.25650000
C        3.05480000       1.23280000      -1.30220000
C        2.74530000      -0.24960000      -0.98500000
C        1.54470000      -0.75590000      -1.73220000
C        0.28970000      -0.59980000      -1.31060000
C       -0.12420000       0.03300000      -0.00150000
H       -0.61700000       1.92580000       0.92120000
H       -0.67620000       1.96420000      -0.83900000
H        1.16340000       3.30630000       0.17700000
H        1.90360000       1.83420000       0.81150000
H        3.43440000       1.32090000      -2.32580000
H        3.84800000       1.58380000      -0.62150000
H        3.64120000      -0.83300000      -1.22800000
H        2.59140000      -0.35480000       0.09500000
H        1.72330000      -1.21050000      -2.70410000
H       -0.52010000      -0.94150000      -1.95170000
H        0.51680000      -0.32790000       0.81410000
H       -1.13860000      -0.29850000       0.24520000
