14
Properties=species:S:1:pos:R:3 gdb_29887=T pbc="F F F"
C       -0.02400000       1.49390000       0.04730000
N       -0.00700000       0.03480000       0.02810000
C       -0.06160000      -0.69740000      -1.14320000
N       -0.04920000      -1.96970000      -1.21780000
C        0.02670000      -2.71820000      -0.00410000
O        0.04030000      -3.92140000      -0.02370000
N        0.08470000      -1.99890000       1.20920000
C        0.06590000      -0.71950000       1.17120000
O        0.11830000       0.01720000       2.28790000
H        0.88580000       1.88580000       0.50760000
H       -0.08490000       1.84670000      -0.98360000
H       -0.88770000       1.86370000       0.60470000
H       -0.11880000      -0.08910000      -2.04550000
H        0.16680000      -0.61970000       3.01690000
