21
Properties=species:S:1:pos:R:3 gdb_72227=T pbc="F F F"
C       -0.08060000       1.54420000      -0.04470000
C       -0.00260000       0.04390000      -0.00590000
C        0.84070000      -0.78660000      -0.98010000
C       -0.12210000      -1.99360000      -0.75120000
C        0.40410000      -2.84830000       0.39790000
O        0.54300000      -1.92280000       1.48070000
C       -0.31900000      -0.82210000       1.21120000
C       -0.89210000      -0.23540000       2.47090000
C       -1.11000000      -1.03140000      -0.03870000
H        0.87110000       1.99310000       0.26540000
H       -0.29560000       1.89790000      -1.06020000
H       -0.85940000       1.93900000       0.61390000
H        0.75880000      -0.39240000      -1.99730000
H        1.89810000      -0.94140000      -0.73630000
H       -0.45400000      -2.54580000      -1.62950000
H       -0.29910000      -3.65300000       0.66510000
H        1.38540000      -3.29140000       0.19560000
H       -0.09970000       0.17460000       3.10570000
H       -1.60380000       0.56430000       2.25290000
H       -1.41210000      -1.01170000       3.04030000
H       -2.18630000      -0.96140000      -0.14100000
