18
Properties=species:S:1:pos:R:3 gdb_31080=T pbc="F F F"
C        0.01490000       1.40020000       0.03040000
O        0.02570000      -0.02080000      -0.00390000
C        0.63590000      -0.62740000       1.03980000
C        0.75120000      -1.98970000       1.19050000
N        0.35160000      -3.11950000       0.45070000
N        1.44180000      -2.12590000       2.39210000
C        1.69700000      -0.88850000       2.88400000
C        2.42320000      -0.63260000       4.16220000
N        1.21460000       0.04570000       2.07590000
H        1.03170000       1.80730000       0.03580000
H       -0.50920000       1.71750000      -0.87330000
H       -0.50800000       1.77430000       0.91720000
H       -0.65600000      -3.15090000       0.33000000
H        0.75890000      -3.12120000      -0.47940000
H        1.69200000      -3.01330000       2.79630000
H        3.44150000      -1.03900000       4.14560000
H        2.48700000       0.44560000       4.31470000
H        1.90740000      -1.07250000       5.02400000
