16
Properties=species:S:1:pos:R:3 gdb_2163=T pbc="F F F"
C       -0.04200000       1.40650000       0.13230000
N       -0.02110000      -0.03220000       0.02690000
C       -1.19760000      -0.80570000      -0.32450000
C       -0.74370000      -2.26570000      -0.10700000
C        0.78140000      -2.20680000      -0.28160000
C        1.14640000      -0.75360000       0.02850000
O        2.25630000      -0.30050000       0.22010000
H        0.97250000       1.73460000       0.36550000
H       -0.36330000       1.87410000      -0.80840000
H       -0.72330000       1.73350000       0.92700000
H       -2.04900000      -0.53160000       0.30930000
H       -1.49560000      -0.61910000      -1.36850000
H       -0.99280000      -2.57690000       0.91170000
H       -1.23760000      -2.95520000      -0.79420000
H        1.33710000      -2.88760000       0.36530000
H        1.08920000      -2.41490000      -1.31320000
