19
Properties=species:S:1:pos:R:3 gdb_38771=T pbc="F F F"
C       -0.00530000       1.50820000       0.00180000
C        1.40740000       2.06120000       0.00600000
N        1.69090000       3.15630000       0.95160000
C        2.29070000       1.81720000       1.17580000
C        1.83640000       1.07200000       2.38350000
C        1.09000000      -0.03380000       2.38450000
C        0.56790000      -0.73530000       1.17800000
N       -0.89850000      -0.68020000       0.95500000
C        0.01030000      -0.00880000       0.00780000
H       -0.52030000       1.85650000       0.89880000
H       -0.56700000       1.88650000      -0.86040000
H        1.90120000       2.10370000      -0.96410000
H        2.39030000       3.78430000       0.56320000
H        3.35880000       1.73470000       0.97150000
H        2.16180000       1.48660000       3.33630000
H        0.82800000      -0.48960000       3.33810000
H        1.04380000      -1.69530000       0.97450000
H       -1.21960000      -1.56430000       0.56780000
H        0.15470000      -0.48380000      -0.96180000
