18
Properties=species:S:1:pos:R:3 gdb_10413=T pbc="F F F"
C       -0.09950000       1.54570000      -0.05420000
O       -0.23670000       0.13720000      -0.06640000
C        0.59050000      -0.53060000      -0.99300000
C        2.12940000      -0.57370000      -0.68000000
C        2.10180000      -2.10020000      -0.95470000
C        0.56020000      -2.07270000      -0.78860000
C        0.31070000      -0.13490000      -2.37500000
C        0.08490000       0.18780000      -3.51150000
H        0.92710000       1.85230000       0.19450000
H       -0.37290000       1.98980000      -1.02020000
H       -0.77580000       1.91920000       0.71780000
H        2.78880000       0.04950000      -1.28580000
H        2.28200000      -0.35330000       0.38000000
H        2.39820000      -2.33420000      -1.97970000
H        2.66530000      -2.73900000      -0.27270000
H        0.25100000      -2.27840000       0.23890000
H       -0.05120000      -2.65330000      -1.48010000
H       -0.11940000       0.46960000      -4.51500000
