18
Properties=species:S:1:pos:R:3 gdb_45711=T pbc="F F F"
O       -0.10570000      -0.04930000      -0.14770000
C       -0.03250000       1.15320000      -0.04200000
N       -1.10420000       2.03800000      -0.04500000
C       -0.69270000       3.36290000       0.22010000
C        0.64020000       3.44050000       0.24420000
C        1.67190000       4.37160000       0.81420000
C        2.80700000       3.38940000       1.26780000
C        2.19550000       1.96300000       1.22780000
C        1.20670000       2.05570000       0.04920000
H       -2.05930000       1.71990000      -0.06400000
H       -1.44030000       4.11600000       0.42830000
H        2.05500000       5.09360000       0.08370000
H        1.27520000       4.95450000       1.65180000
H        3.64330000       3.44630000       0.56300000
H        3.20550000       3.64140000       2.25370000
H        2.94800000       1.18050000       1.10630000
H        1.64580000       1.75640000       2.15260000
H        1.75230000       1.94860000      -0.89920000
