18
Properties=species:S:1:pos:R:3 gdb_37095=T pbc="F F F"
C       -0.01010000       1.52920000       0.05540000
N        1.19530000       0.67990000      -0.05950000
C       -0.11210000       0.05460000       0.03810000
C       -0.46350000      -0.97930000       1.09420000
C       -1.92660000      -1.31080000       1.00970000
C       -0.99270000      -1.91720000      -0.00720000
C       -0.65100000      -0.87230000      -1.05110000
C       -1.18620000      -0.61930000      -2.38870000
O        0.14110000      -1.14920000      -2.19370000
H       -0.09410000       2.07360000       0.99230000
H       -0.35260000       2.07760000      -0.81950000
H        1.50960000       0.62680000      -1.02760000
H        0.15540000      -1.21740000       1.94900000
H       -2.29540000      -1.99980000       1.76290000
H       -2.64550000      -0.55150000       0.71130000
H       -0.85500000      -2.98360000      -0.12790000
H       -1.90210000      -1.31380000      -2.82610000
H       -1.22490000       0.39550000      -2.78280000
