23
Properties=species:S:1:pos:R:3 gdb_59427=T pbc="F F F"
C        0.00910000       1.51500000      -0.39780000
C        0.00400000       0.07780000       0.12640000
O        0.63310000      -0.00350000       1.40880000
C       -1.38560000      -0.52460000       0.15060000
C       -1.91830000      -1.28480000      -1.04720000
C       -1.56040000      -2.01110000       0.21850000
C       -0.47160000      -3.08670000       0.36920000
C       -1.54670000      -4.02440000       0.99490000
C       -2.52550000      -2.81680000       1.10080000
H        1.02480000       1.91980000      -0.39210000
H       -0.38540000       1.56280000      -1.41770000
H       -0.61870000       2.15750000       0.23250000
H        0.64000000      -0.53940000      -0.51950000
H        0.08880000       0.49300000       2.02990000
H       -2.11690000       0.07030000       0.69980000
H       -2.96720000      -1.17120000      -1.30390000
H       -1.26070000      -1.40150000      -1.90490000
H        0.00600000      -3.43890000      -0.54940000
H        0.30650000      -2.78920000       1.07740000
H       -1.89770000      -4.78560000       0.29380000
H       -1.27800000      -4.51650000       1.93200000
H       -2.60220000      -2.42030000       2.11860000
H       -3.53660000      -2.96960000       0.71250000
