21
Properties=species:S:1:pos:R:3 gdb_62211=T pbc="F F F"
C        0.13880000       1.58220000      -0.03600000
C        0.04730000       0.04680000      -0.02070000
C       -1.40580000      -0.47520000       0.05250000
C       -2.14540000      -0.09830000       1.34090000
C       -3.55150000      -0.73030000       1.40600000
C       -4.27870000      -0.36890000       2.61650000
C       -4.85460000      -0.05310000       3.62320000
C        0.68770000      -0.50200000      -1.28150000
O        1.59210000      -1.29490000      -1.31670000
H        1.17990000       1.91220000      -0.10380000
H       -0.40400000       2.00070000      -0.89150000
H       -0.28660000       2.01330000       0.87340000
H        0.61800000      -0.35500000       0.82390000
H       -1.96830000      -0.10310000      -0.81560000
H       -1.38760000      -1.56920000      -0.03910000
H       -1.56730000      -0.42600000       2.21270000
H       -2.24890000       0.98800000       1.42530000
H       -4.13130000      -0.42190000       0.52580000
H       -3.46490000      -1.82300000       1.34290000
H       -5.37430000       0.21720000       4.50860000
H        0.23550000      -0.10700000      -2.22440000
