23
Properties=species:S:1:pos:R:3 gdb_6558=T pbc="F F F"
C       -0.01020000       1.54390000       0.12670000
C        0.01240000       0.00980000       0.00760000
C        0.78320000      -0.59110000       1.19650000
C       -1.42830000      -0.53110000       0.00730000
C        0.66910000      -0.39610000      -1.33020000
N        2.05300000       0.05580000      -1.45150000
C        3.10160000      -0.92870000      -1.20520000
C        2.80100000      -0.46860000      -2.58760000
H        1.00110000       1.95100000       0.05210000
H       -0.61210000       1.99060000      -0.67280000
H       -0.44310000       1.85510000       1.08370000
H        0.28620000      -0.34410000       2.14100000
H        0.83620000      -1.68390000       1.12690000
H        1.80460000      -0.20390000       1.24490000
H       -2.00370000      -0.13090000      -0.83530000
H       -1.44540000      -1.62470000      -0.06410000
H       -1.94930000      -0.24980000       0.92860000
H        0.58770000      -1.49180000      -1.46130000
H        0.10290000       0.06410000      -2.15030000
H        3.98070000      -0.56710000      -0.67910000
H        2.79790000      -1.94110000      -0.94280000
H        2.29820000      -1.17600000      -3.24610000
H        3.45430000       0.23730000      -3.09300000
