21
Properties=species:S:1:pos:R:3 gdb_71218=T pbc="F F F"
C       -0.03240000       1.54540000      -0.00160000
C        0.01420000       0.02860000       0.00100000
C        1.04840000      -0.70070000      -0.93580000
C        1.19760000      -1.74210000       0.17370000
C       -0.12880000      -2.52220000       0.60280000
C       -0.03930000      -1.77020000       1.97900000
C        0.74900000      -0.69150000       1.23330000
C       -1.34320000      -1.96020000      -0.08650000
C       -1.30740000      -0.64270000      -0.29350000
H        0.96050000       1.97450000       0.16860000
H       -0.40000000       1.92540000      -0.96230000
H       -0.70010000       1.92250000       0.78180000
H        0.70290000      -0.99570000      -1.93060000
H        1.97540000      -0.12190000      -1.01960000
H        2.10970000      -2.33360000       0.26820000
H       -0.08430000      -3.61160000       0.60990000
H       -0.98230000      -1.52380000       2.47490000
H        0.62420000      -2.29130000       2.67740000
H        1.44490000      -0.03700000       1.76290000
H       -2.20270000      -2.58520000      -0.30420000
H       -2.12420000      -0.07100000      -0.72380000
