18
Properties=species:S:1:pos:R:3 gdb_27535=T pbc="F F F"
C        0.01940000       1.45360000      -0.10070000
C       -0.03350000      -0.03090000      -0.05460000
N       -1.07280000      -0.80240000      -0.09030000
C       -0.56440000      -2.10260000      -0.01990000
C        0.78700000      -2.02410000       0.04980000
O        1.14390000      -0.70090000       0.03610000
C       -1.45890000      -3.27480000      -0.02350000
C       -0.94350000      -4.65570000       0.29470000
C       -1.84480000      -3.95650000       1.27640000
H        0.59920000       1.80100000      -0.96210000
H       -0.99660000       1.84150000      -0.17470000
H        0.49260000       1.85940000       0.79950000
H        1.59170000      -2.73610000       0.10060000
H       -2.25100000      -3.21060000      -0.76320000
H       -1.34160000      -5.48700000      -0.27590000
H        0.10230000      -4.76480000       0.56010000
H       -1.39960000      -3.57430000       2.18790000
H       -2.86700000      -4.30220000       1.38240000
