19
Properties=species:S:1:pos:R:3 gdb_46908=T pbc="F F F"
O        0.04820000       0.03320000      -0.44020000
C       -0.00580000       1.18860000      -0.08380000
C       -1.35250000       1.88270000       0.10570000
C       -1.48120000       2.82260000       1.32120000
C       -0.73350000       4.12670000       1.12770000
C        0.13790000       4.68900000       2.23340000
C        0.77100000       4.05580000       1.03550000
O        1.36980000       2.81120000       1.23690000
C        1.31180000       1.96070000       0.10450000
H       -1.54390000       2.45940000      -0.81170000
H       -2.09990000       1.08500000       0.13590000
H       -2.54340000       3.03220000       1.48810000
H       -1.12350000       2.31010000       2.21930000
H       -1.22390000       4.84540000       0.47580000
H        0.21570000       5.76430000       2.34630000
H        0.18860000       4.12880000       3.16080000
H        1.29050000       4.68750000       0.31380000
H        2.10070000       1.21390000       0.21780000
H        1.51110000       2.52690000      -0.82120000
