19
Properties=species:S:1:pos:R:3 gdb_51923=T pbc="F F F"
O       -0.73530000       0.87070000       0.80320000
C       -0.00850000       1.07040000      -0.13470000
C        1.26870000       1.87800000      -0.08820000
C        1.30570000       2.95660000      -1.19740000
C        2.57660000       3.66830000      -1.24050000
C        3.63760000       4.24090000      -1.25250000
C        4.89750000       4.92680000      -1.26820000
C        5.75010000       4.94200000      -2.52770000
C        5.06870000       6.20110000      -2.08060000
H       -0.24470000       0.64780000      -1.14110000
H        1.37790000       2.32200000       0.90380000
H        2.10730000       1.18650000      -0.24680000
H        1.11310000       2.48020000      -2.16850000
H        0.48180000       3.66440000      -1.03780000
H        5.44640000       4.89190000      -0.33140000
H        6.82360000       4.85860000      -2.40130000
H        5.35380000       4.42870000      -3.39560000
H        4.20940000       6.54380000      -2.64420000
H        5.66960000       6.99060000      -1.64360000
