20
Properties=species:S:1:pos:R:3 gdb_15266=T pbc="F F F"
C       -0.37820000       1.48580000       0.18980000
C        0.14430000       0.07380000      -0.10330000
C        0.81640000      -0.53750000       1.10900000
C        0.03540000      -1.38050000       2.08340000
O       -1.29490000      -1.67580000       1.77790000
C        1.11670000      -2.02890000       1.24310000
C        0.68660000      -3.05020000       0.21080000
O       -0.14480000      -4.07930000       0.77740000
H        0.43220000       2.15500000       0.50050000
H       -0.85010000       1.92300000      -0.69570000
H       -1.12120000       1.46300000       0.99280000
H       -0.69660000      -0.55330000      -0.41090000
H        0.84980000       0.10680000      -0.94350000
H        1.57100000       0.10350000       1.56020000
H        0.22940000      -1.24670000       3.14750000
H       -1.33200000      -2.62860000       1.60830000
H        2.04010000      -2.27740000       1.76130000
H        0.07460000      -2.60210000      -0.57310000
H        1.56320000      -3.49790000      -0.27650000
H        0.35910000      -4.50650000       1.47840000
