13
Properties=species:S:1:pos:R:3 gdb_8616=T pbc="F F F"
C       -0.00360000       1.60090000      -0.04350000
C       -0.00760000       0.05790000      -0.05460000
C        0.73550000      -0.50750000       1.20510000
O        1.16680000       0.19210000       2.07210000
C       -1.36190000      -0.49760000      -0.00160000
C       -2.46410000      -0.95990000       0.11400000
C        0.70770000      -0.46250000      -1.23270000
N        1.30840000      -0.87260000      -2.13050000
H        1.02350000       1.97010000      -0.05110000
H       -0.53460000       1.98260000      -0.91660000
H       -0.49530000       1.95290000       0.86420000
H        0.80010000      -1.61260000       1.22170000
H       -3.44440000      -1.36320000       0.19140000
