17
Properties=species:S:1:pos:R:3 gdb_43280=T pbc="F F F"
O       -0.04680000      -0.03990000      -0.11880000
C       -0.04370000       1.16220000       0.00550000
C       -1.25290000       2.04470000       0.17660000
C       -0.93340000       3.34680000       0.06400000
C        0.53660000       3.51890000      -0.08150000
C        1.38690000       3.06010000       1.07210000
C        1.12740000       2.10810000      -0.07330000
C        2.01380000       2.44890000      -1.29040000
C        1.39230000       3.88670000      -1.31660000
H       -2.23720000       1.63170000       0.36220000
H       -1.63890000       4.17040000       0.11910000
H        2.39460000       3.45030000       1.19470000
H        0.86180000       2.86260000       1.99900000
H        3.09170000       2.37940000      -1.12030000
H        1.76270000       1.85820000      -2.17270000
H        0.78780000       4.06360000      -2.20780000
H        2.07740000       4.72910000      -1.18560000
