23
Properties=species:S:1:pos:R:3 gdb_96000=T pbc="F F F"
C       -0.75790000       1.16580000       0.07040000
C        0.06990000      -0.11330000      -0.03150000
C        1.28640000      -0.03990000      -0.96810000
C        2.08560000      -1.26200000      -0.51940000
O        1.87150000      -1.37570000       0.88420000
C        0.71200000      -0.62810000       1.28560000
C        1.12540000       0.43580000       2.27730000
C        0.19230000       0.83590000       3.39530000
C        1.43140000       0.03300000       3.69570000
H       -0.15270000       2.01210000       0.40880000
H       -1.18170000       1.42610000      -0.90510000
H       -1.58870000       1.05080000       0.77360000
H       -0.58100000      -0.91610000      -0.40240000
H        1.01620000      -0.06930000      -2.02710000
H        1.85340000       0.88160000      -0.78950000
H        1.73000000      -2.16930000      -1.03360000
H        3.16260000      -1.17560000      -0.69890000
H        0.02450000      -1.31910000       1.79580000
H        1.74940000       1.22320000       1.86260000
H        0.16250000       1.87820000       3.69230000
H       -0.76670000       0.33160000       3.46200000
H        1.31080000      -1.01320000       3.95670000
H        2.25470000       0.52380000       4.20210000
