25
Properties=species:S:1:pos:R:3 gdb_64477=T pbc="F F F"
C        0.37390000       1.50320000       0.32110000
C       -0.13950000       0.08580000       0.00740000
C       -1.67030000       0.05200000       0.17090000
C        0.27820000      -0.27450000      -1.44320000
C       -0.25600000      -1.60270000      -2.00850000
C        0.47250000      -2.88890000      -1.56230000
C        1.06140000      -2.85940000      -0.14450000
O        0.22410000      -2.24530000       0.82090000
C        0.49370000      -0.87250000       1.03660000
H        1.45600000       1.58030000       0.16560000
H       -0.10950000       2.24440000      -0.32420000
H        0.16410000       1.78230000       1.35990000
H       -2.17120000       0.60860000      -0.62890000
H       -2.04830000      -0.97330000       0.16770000
H       -1.96190000       0.50540000       1.12470000
H       -0.07830000       0.53670000      -2.09090000
H        1.37460000      -0.25040000      -1.51700000
H       -1.31780000      -1.68790000      -1.76100000
H       -0.21610000      -1.55480000      -3.10280000
H       -0.22390000      -3.73040000      -1.64980000
H        1.30170000      -3.10990000      -2.24730000
H        1.23990000      -3.88610000       0.19680000
H        2.03750000      -2.35120000      -0.15370000
H        1.58390000      -0.70960000       1.06960000
H        0.09780000      -0.64070000       2.03280000
