19
Properties=species:S:1:pos:R:3 gdb_106924=T pbc="F F F"
C        0.43880000       1.36380000       0.40170000
C       -0.22080000       0.12820000      -0.22390000
C        0.54420000      -0.40380000      -1.41260000
C        0.29050000       0.07120000      -2.79270000
N       -0.16140000      -1.28350000      -2.36660000
C        0.77400000      -2.28180000      -2.75690000
N        0.50250000      -3.21960000      -3.55070000
O        1.99730000      -2.08470000      -2.15600000
C        1.91000000      -1.04010000      -1.18400000
H        1.44580000       1.14170000       0.77140000
H        0.52350000       2.17810000      -0.32540000
H       -0.14830000       1.72910000       1.24880000
H       -0.31150000      -0.66850000       0.52530000
H       -1.23900000       0.36650000      -0.54770000
H       -0.52360000       0.76220000      -2.98700000
H        1.12000000       0.12270000      -3.49310000
H        1.31760000      -3.82020000      -3.67270000
H        2.75310000      -0.35790000      -1.32900000
H        1.97440000      -1.47240000      -0.17750000
