17
Properties=species:S:1:pos:R:3 gdb_17633=T pbc="F F F"
C        0.04340000       1.36820000       0.26550000
C        0.00570000      -0.11070000      -0.02740000
O        1.00780000      -0.76590000      -0.22470000
C       -1.35550000      -0.82390000      -0.07960000
O       -1.14850000      -2.18450000      -0.34180000
C       -2.13520000      -0.62940000       1.21860000
C       -3.06730000      -1.68110000       1.68120000
N       -1.79010000      -1.44730000       2.38730000
H        1.02320000       1.77110000       0.00670000
H       -0.74240000       1.90300000      -0.27670000
H       -0.13400000       1.52770000       1.33540000
H       -1.93010000      -0.35360000      -0.89820000
H       -0.18660000      -2.27000000      -0.46370000
H       -2.36620000       0.40870000       1.44840000
H       -3.95730000      -1.40450000       2.23870000
H       -3.15150000      -2.57320000       1.06990000
H       -1.13580000      -2.16530000       2.07770000
