20
Properties=species:S:1:pos:R:3 gdb_119498=T pbc="F F F"
C       -0.37810000       0.59270000       0.24780000
O        0.88050000       0.42090000      -0.37060000
C        0.86230000      -0.47320000      -1.46800000
C        0.71180000      -1.91850000      -1.09300000
C        1.79750000      -2.71580000      -0.42540000
C        1.25110000      -3.17210000      -1.75160000
C       -0.17030000      -3.75180000      -1.63580000
C       -0.74480000      -3.75250000      -0.27570000
N       -0.70940000      -2.48320000      -1.03250000
H       -1.13870000       0.93250000      -0.47210000
H       -0.74490000      -0.33010000       0.71670000
H       -0.25220000       1.35780000       1.01840000
H        0.06040000      -0.20200000      -2.17320000
H        1.82440000      -0.33760000      -1.97440000
H        2.76790000      -2.23340000      -0.49450000
H        1.66890000      -3.27640000       0.49320000
H        1.85950000      -3.26710000      -2.64140000
H       -0.67400000      -4.21310000      -2.47950000
H       -1.75980000      -4.12790000      -0.17750000
H       -0.14000000      -3.89300000       0.61230000
