16
Properties=species:S:1:pos:R:3 gdb_65455=T pbc="F F F"
O       -0.10250000       1.35860000      -0.05340000
C        0.01600000      -0.04220000      -0.01090000
C       -0.45910000      -0.73300000       1.26450000
C       -1.32810000      -0.73800000       0.03120000
N       -2.48690000       0.08980000      -0.05340000
C       -3.70700000      -0.40540000      -0.39660000
O       -3.96010000      -1.57880000      -0.56750000
C        1.10300000      -0.59870000      -0.76980000
C        2.03130000      -1.05130000      -1.38600000
H        0.65930000       1.73820000       0.39840000
H        0.02360000      -1.65750000       1.55900000
H       -0.74880000      -0.06860000       2.07130000
H       -1.44390000      -1.66950000      -0.50760000
H       -2.34000000       1.08750000      -0.02090000
H       -4.45930000       0.40120000      -0.49770000
H        2.84090000      -1.45360000      -1.94340000
