17
Properties=species:S:1:pos:R:3 gdb_11518=T pbc="F F F"
O       -0.33640000       1.29990000       0.05330000
C        0.02970000      -0.07350000      -0.05340000
C        0.87570000      -0.33760000      -1.31910000
C        0.14160000       0.03760000      -2.58510000
C        0.46990000      -0.62300000      -3.87030000
N       -0.81490000      -0.90160000      -3.20100000
C        0.71840000      -0.54520000       1.15090000
C        1.32480000      -0.89980000       2.12670000
H        0.44250000       1.78430000       0.34970000
H       -0.92410000      -0.60590000      -0.15430000
H        1.80760000       0.23710000      -1.23300000
H        1.16040000      -1.39690000      -1.34610000
H       -0.20430000       1.06760000      -2.60850000
H        0.39030000      -0.07430000      -4.80450000
H        1.23780000      -1.39320000      -3.86480000
H       -0.76050000      -1.80410000      -2.73260000
H        1.83950000      -1.22150000       2.99840000
