19
Properties=species:S:1:pos:R:3 gdb_77915=T pbc="F F F"
C       -0.36380000       1.52690000      -0.10460000
C       -0.00390000       0.04570000      -0.06390000
C        1.28520000      -0.53500000      -0.76570000
C        2.13040000      -0.06630000       0.48030000
O        2.41330000       1.29120000       0.69920000
C        0.81480000      -0.60290000       1.13890000
C        0.46260000      -0.64730000       2.59630000
C        0.99450000      -1.74740000       0.12680000
O        0.90730000      -2.93630000       0.06860000
H       -0.76540000       1.77730000      -1.09310000
H       -1.15620000       1.73110000       0.62460000
H        0.48030000       2.17670000       0.10880000
H       -0.90360000      -0.53270000      -0.30420000
H        1.55360000      -0.50110000      -1.81940000
H        3.02340000      -0.67480000       0.67780000
H        3.17480000       1.52730000       0.16000000
H        0.43490000       0.35920000       3.02580000
H       -0.51820000      -1.11010000       2.74620000
H        1.19770000      -1.23380000       3.15720000
