23
Properties=species:S:1:pos:R:3 gdb_96012=T pbc="F F F"
O       -0.08330000       1.42310000       0.47690000
C       -0.09080000       0.07140000       0.01830000
C        0.69960000      -0.85030000       0.95840000
C       -0.25190000      -1.12060000       2.15740000
C       -1.66370000      -0.68070000       1.68140000
C       -1.53350000      -0.44380000       0.15850000
C       -2.59110000       0.45020000      -0.44280000
C       -2.96380000       0.32830000      -1.89960000
C       -3.93490000      -0.11320000      -0.83170000
H        0.83020000       1.72340000       0.49700000
H        0.26670000       0.02010000      -1.02040000
H        0.93740000      -1.78210000       0.43240000
H        1.65440000      -0.40500000       1.25840000
H       -0.22980000      -2.17700000       2.43960000
H        0.05400000      -0.55490000       3.04100000
H       -2.43810000      -1.41590000       1.91540000
H       -1.95160000       0.25720000       2.16490000
H       -1.56810000      -1.41680000      -0.35240000
H       -2.59140000       1.45680000      -0.03740000
H       -3.18240000       1.23420000      -2.45400000
H       -2.47550000      -0.44250000      -2.48780000
H       -4.09470000      -1.17960000      -0.70530000
H       -4.81990000       0.48880000      -0.65720000
