17
Properties=species:S:1:pos:R:3 gdb_73826=T pbc="F F F"
C        0.01810000       1.46550000       0.11010000
C       -0.04630000      -0.02090000       0.03070000
C       -0.05730000      -0.87190000      -1.02210000
C       -0.00910000      -0.63850000      -2.49280000
C       -0.02290000      -2.22830000      -0.33890000
O       -0.89880000      -2.04890000       0.80870000
C       -0.00640000      -0.97360000       1.21330000
C        1.14820000      -1.93320000       0.69340000
O        2.23600000      -2.29910000       0.97750000
H        0.91310000       1.79480000       0.65250000
H        0.04500000       1.92220000      -0.88290000
H       -0.84560000       1.87490000       0.64790000
H        0.02600000       0.42780000      -2.73160000
H        0.87540000      -1.10920000      -2.93980000
H       -0.88390000      -1.06940000      -2.99480000
H       -0.16430000      -3.15360000      -0.89300000
H       -0.13090000      -0.62440000       2.23590000
