18
Properties=species:S:1:pos:R:3 gdb_73517=T pbc="F F F"
O        0.01180000       1.39760000      -0.27890000
C        0.00360000       0.00830000      -0.07100000
C        1.12200000      -0.62350000      -0.90960000
C        2.29920000      -0.74270000       0.11140000
C        1.56950000      -0.99050000       1.43380000
C        0.32520000      -0.53620000       1.33130000
C       -1.09110000      -0.87880000       1.61550000
N       -1.94560000       0.28910000       1.24630000
C       -1.42540000      -0.58150000       0.16790000
H       -0.64700000       1.75120000       0.33680000
H        0.83540000      -1.62630000      -1.24250000
H        1.35500000      -0.01730000      -1.78850000
H        2.96930000      -1.57270000      -0.13570000
H        2.91380000       0.16640000       0.12710000
H        1.99040000      -1.58000000       2.24070000
H       -1.48030000      -1.65560000       2.26140000
H       -2.91390000       0.02680000       1.42560000
H       -2.09470000      -1.11080000      -0.50090000
