10
Properties=species:S:1:pos:R:3 gdb_23624=T pbc="F F F"
F        0.09700000       0.05540000       0.00180000
C       -0.05580000       1.35380000       0.01120000
C       -1.22770000       1.99610000       0.03080000
C       -1.22870000       3.46130000       0.03920000
O       -2.22640000       4.13950000       0.05590000
N        0.07050000       4.07030000       0.02440000
C        1.09880000       3.33910000       0.00620000
O        1.13880000       1.96360000      -0.00180000
H       -2.16000000       1.44990000       0.04040000
H        2.11170000       3.72830000      -0.00560000
