14
Properties=species:S:1:pos:R:3 gdb_18341=T pbc="F F F"
O       -0.07150000       0.01090000       0.08690000
C       -0.02780000       1.20540000       0.12450000
O       -1.13120000       1.96980000       0.35770000
C       -0.85340000       3.37520000       0.25380000
C        0.66620000       3.51710000       0.22190000
O        1.26160000       3.54540000       1.53600000
C        1.96070000       2.30280000       1.29490000
C        1.19530000       2.09860000      -0.03220000
H       -1.31830000       3.75500000      -0.66300000
H       -1.28600000       3.88160000       1.12020000
H        1.01240000       4.34470000      -0.40440000
H        3.03730000       2.46190000       1.16400000
H        1.79140000       1.56280000       2.08320000
H        1.76870000       1.85120000      -0.92320000
