25
Properties=species:S:1:pos:R:3 gdb_112959=T pbc="F F F"
C        0.06650000       1.47450000      -0.15630000
C        0.06510000      -0.04440000       0.06460000
C        0.77200000      -0.41300000       1.37610000
C       -1.35430000      -0.60780000       0.02630000
C       -2.16610000      -0.53110000      -1.30020000
C       -2.72230000      -1.94920000      -1.00120000
C       -2.86050000      -2.92190000      -2.15240000
O       -3.25920000      -4.17880000      -1.62200000
C       -1.56230000      -2.14980000       0.01080000
H        1.08680000       1.87200000      -0.17300000
H       -0.41310000       1.74370000      -1.10290000
H       -0.47500000       1.98620000       0.64870000
H        0.62400000      -0.50770000      -0.76290000
H        0.25630000       0.03220000       2.23570000
H        0.79660000      -1.49680000       1.52810000
H        1.80500000      -0.04940000       1.38560000
H       -1.93950000      -0.16280000       0.84190000
H       -2.88350000       0.28410000      -1.42250000
H       -1.49930000      -0.53940000      -2.17130000
H       -3.68070000      -1.88760000      -0.47500000
H       -3.60040000      -2.54000000      -2.87640000
H       -1.89630000      -3.00160000      -2.68270000
H       -3.32260000      -4.80600000      -2.34800000
H       -0.71360000      -2.66160000      -0.45840000
H       -1.79010000      -2.65150000       0.95330000
