15
Properties=species:S:1:pos:R:3 gdb_51506=T pbc="F F F"
O        0.13480000      -0.15770000       0.27620000
C        0.06840000       0.95700000      -0.16400000
C        1.19670000       1.97710000      -0.04780000
N        1.23400000       2.90420000      -1.15360000
C        1.63360000       2.66070000      -2.46930000
N        1.60470000       3.65820000      -3.26390000
C        1.13040000       4.79000000      -2.46230000
C        0.89760000       4.25820000      -1.04690000
O        0.52410000       4.80840000      -0.04020000
H       -0.83820000       1.33930000      -0.68550000
H        1.00920000       2.58400000       0.84850000
H        2.14760000       1.45200000       0.08350000
H        1.94660000       1.66040000      -2.75320000
H        1.86710000       5.60040000      -2.45430000
H        0.20480000       5.20340000      -2.87730000
