17
Properties=species:S:1:pos:R:3 gdb_49092=T pbc="F F F"
O       -0.17470000       0.38200000      -0.74300000
C        0.17590000       1.10320000       0.16170000
C        1.40410000       1.92890000       0.15120000
C        1.83990000       2.71550000       1.38420000
O        2.46230000       3.90470000       0.88700000
C        2.79040000       3.64910000      -0.46710000
C        3.73110000       2.40410000      -0.62610000
C        2.47560000       1.56790000      -0.88680000
C        1.64290000       2.80500000      -1.07340000
H       -0.43850000       1.19920000       1.08540000
H        0.98440000       3.00090000       2.00810000
H        2.54460000       2.15210000       2.01020000
H        3.08980000       4.58450000      -0.93670000
H        4.34570000       2.47880000      -1.52690000
H        4.36720000       2.16060000       0.23010000
H        2.39440000       0.62510000      -1.41270000
H        0.87240000       3.05650000      -1.78890000
