17
Properties=species:S:1:pos:R:3 gdb_131777=T pbc="F F F"
O        0.05600000       1.45760000      -0.27240000
C        0.05820000       0.04960000      -0.13260000
C       -1.35720000      -0.52680000       0.07350000
C       -1.38990000      -2.01870000       0.12580000
C       -1.41350000      -2.90820000       1.18770000
O       -1.45100000      -2.65970000       2.52780000
C       -1.38880000      -4.19550000       0.61270000
N       -1.34980000      -4.12760000      -0.71630000
N       -1.34640000      -2.81440000      -0.98660000
H       -0.17530000       1.84450000       0.57790000
H        0.48080000      -0.34430000      -1.06270000
H        0.71610000      -0.28380000       0.68400000
H       -1.77320000      -0.12230000       1.00740000
H       -2.00310000      -0.14810000      -0.72790000
H       -1.56610000      -1.71540000       2.67190000
H       -1.40010000      -5.14930000       1.11720000
H       -1.34980000      -2.51480000      -1.94680000
