14
Properties=species:S:1:pos:R:3 gdb_97476=T pbc="F F F"
N        0.04360000       1.33300000      -0.10360000
H        0.23330000       0.37810000      -0.42360000
H        0.92300000       1.84480000      -0.00240000
H       -0.51100000       1.82890000      -0.80500000
C       -0.75120000       1.43820000       1.31440000
C       -0.93940000       2.79960000       1.62350000
C       -0.92460000       4.02810000       1.57300000
C       -0.90890000       5.35680000       1.51870000
C       -0.83480000       6.57500000       1.36220000
C       -0.69640000       8.04980000       1.08600000
O       -1.18190000       8.79320000       1.93850000
O       -0.09700000       8.21960000       0.01200000
H       -1.66190000       0.86010000       1.12500000
H       -0.10390000       0.87740000       1.99700000
