18
Properties=species:S:1:pos:R:3 gdb_12501=T pbc="F F F"
C       -0.06270000       1.52350000       0.02870000
C        0.01560000       0.02380000      -0.00380000
C        0.08050000      -0.67510000      -1.15780000
C        0.01820000      -2.11080000      -1.29100000
C       -0.65690000      -2.97090000      -0.48070000
C       -1.44130000      -2.59570000       0.67190000
C       -1.19680000      -1.53170000       1.45990000
C        0.06040000      -0.71340000       1.31870000
H        0.78350000       1.95280000       0.58170000
H       -0.07270000       1.95360000      -0.97630000
H       -0.97060000       1.85820000       0.54660000
H        0.16980000      -0.11680000      -2.08840000
H        0.45230000      -2.52360000      -2.19950000
H       -0.71540000      -4.01100000      -0.79350000
H       -2.30780000      -3.21740000       0.88840000
H       -1.91000000      -1.25680000       2.23230000
H        0.93300000      -1.38120000       1.33160000
H        0.16630000      -0.01170000       2.15040000
