20
Properties=species:S:1:pos:R:3 gdb_80462=T pbc="F F F"
C       -0.65650000       1.20100000       0.05100000
C        0.19140000      -0.07440000      -0.00170000
C        1.15110000      -0.16770000      -1.21300000
C        2.50950000      -0.61750000      -0.67370000
C        2.46900000      -0.63780000       0.83520000
N        2.61830000      -1.86200000       0.04420000
C        1.63040000      -2.92990000      -0.01190000
C        1.09460000      -0.18760000       1.24160000
O        0.76470000       0.11540000       2.36300000
H       -0.02480000       2.09410000      -0.00100000
H       -1.36350000       1.23600000      -0.78300000
H       -1.21390000       1.23920000       0.99010000
H       -0.49300000      -0.93280000       0.02290000
H        0.78250000      -0.83990000      -1.99520000
H        1.26820000       0.81820000      -1.67560000
H        3.40460000      -0.30740000      -1.20780000
H        3.29720000      -0.38800000       1.49170000
H        0.60020000      -2.62770000      -0.24210000
H        1.94810000      -3.64040000      -0.78180000
H        1.62740000      -3.45310000       0.94840000
