16
Properties=species:S:1:pos:R:3 gdb_71318=T pbc="F F F"
O        0.04040000       1.38280000       0.20560000
C        0.10310000       0.01000000       0.11640000
C        0.77640000      -1.02080000       1.02180000
N        0.05730000      -1.91650000       0.01810000
C       -1.12830000      -0.91970000      -0.02860000
C       -1.10980000      -0.93710000      -1.57330000
C       -1.64980000       0.17590000      -2.32250000
C       -2.10930000       1.08020000      -2.96770000
C        0.36650000      -0.92290000      -1.12140000
H        0.92290000       1.74640000       0.07170000
H        1.86650000      -1.11870000       0.98580000
H        0.40690000      -1.12910000       2.04620000
H       -1.97330000      -1.02630000       0.65240000
H       -1.41880000      -1.90080000      -1.99190000
H       -2.51300000       1.88840000      -3.52550000
H        1.27180000      -1.02710000      -1.72170000
