17
Properties=species:S:1:pos:R:3 gdb_125084=T pbc="F F F"
C       -0.25500000       1.59850000       0.25770000
C       -0.06020000       0.12350000       0.07890000
C        0.13360000      -0.58120000      -1.09890000
N        0.28920000      -1.88390000      -0.74730000
N        0.19570000      -2.09190000       0.57670000
C       -0.00490000      -0.87640000       1.07860000
C        0.20030000      -0.16430000      -2.51090000
C        1.36890000      -0.45390000      -3.36550000
O        0.17480000      -1.23220000      -3.46850000
H        0.69740000       2.13820000       0.32610000
H       -0.81630000       2.03940000      -0.57310000
H       -0.81150000       1.80830000       1.17590000
H        0.35680000      -2.66000000      -1.38540000
H       -0.11220000      -0.74860000       2.14680000
H       -0.41190000       0.69750000      -2.77500000
H        1.58250000       0.18590000      -4.22050000
H        2.22590000      -0.96600000      -2.93210000
