16
Properties=species:S:1:pos:R:3 gdb_44105=T pbc="F F F"
O       -0.16570000       0.20550000       0.64050000
C       -0.12040000       1.32890000       0.23140000
C       -1.35640000       2.26920000      -0.07110000
C       -0.61920000       3.48040000       0.44500000
C       -0.42260000       3.69820000       1.75840000
C        1.05520000       3.66790000       2.09760000
C        1.68200000       3.18760000       0.78660000
C        0.70400000       3.44660000      -0.28310000
N        1.09640000       2.05080000      -0.05020000
H       -1.60210000       2.28730000      -1.13760000
H       -2.21820000       1.94090000       0.50840000
H       -1.17720000       3.51420000       2.51630000
H        1.51910000       4.62540000       2.37410000
H        1.21410000       2.98740000       2.94280000
H        2.75260000       3.28080000       0.63860000
H        0.88510000       3.89610000      -1.25440000
