21
Properties=species:S:1:pos:R:3 gdb_91546=T pbc="F F F"
O        0.23470000       1.32570000      -0.10320000
C        0.11490000      -0.07100000       0.07160000
C        0.19240000      -0.66300000       1.52330000
C       -1.23450000      -1.18320000       1.34370000
C       -2.15080000      -0.02810000       1.05220000
C       -1.31950000      -0.58420000      -0.07360000
C       -1.84880000      -1.12910000      -1.35250000
C       -3.32020000      -1.17260000      -1.68730000
C       -2.42250000      -0.19470000      -2.39750000
H        1.15980000       1.56610000       0.01090000
H        0.79170000      -0.60990000      -0.60630000
H        0.95050000      -1.44410000       1.62030000
H        0.33110000       0.07440000       2.32110000
H       -1.61030000      -2.13980000       1.68580000
H       -3.20610000      -0.27480000       1.01240000
H       -1.93470000       0.95850000       1.45310000
H       -1.26400000      -1.95580000      -1.75150000
H       -3.68530000      -2.03270000      -2.23790000
H       -4.02820000      -0.77600000      -0.96870000
H       -2.50570000       0.85240000      -2.12890000
H       -2.17760000      -0.37420000      -3.43840000
