15
Properties=species:S:1:pos:R:3 gdb_31101=T pbc="F F F"
N        0.00140000       1.32840000      -0.12180000
C       -0.10410000      -0.05270000      -0.11170000
C       -1.13050000      -0.93470000      -0.02230000
C       -2.59650000      -0.64380000      -0.00910000
O       -2.90980000       0.54430000      -0.74290000
N       -0.59920000      -2.23770000       0.07680000
C        0.67070000      -2.04810000       0.03020000
O        1.66210000      -2.94060000       0.05680000
O        1.07810000      -0.76540000      -0.08130000
H        0.66930000       1.67300000      -0.80270000
H       -0.91540000       1.73270000      -0.28050000
H       -3.14460000      -1.51570000      -0.39220000
H       -2.96810000      -0.45270000       1.00500000
H       -2.67650000       0.37340000      -1.66210000
H        1.24630000      -3.80930000       0.12550000
