18
Properties=species:S:1:pos:R:3 gdb_53810=T pbc="F F F"
C       -0.04540000       1.43840000      -0.41810000
C        0.07210000      -0.04920000      -0.20560000
O        1.12560000      -0.63600000      -0.10050000
C       -1.27480000      -0.79480000      -0.12880000
O       -2.33410000      -0.19110000      -0.23650000
N       -1.20080000      -2.12560000       0.06070000
C       -0.14690000      -3.13940000       0.22590000
C       -1.26580000      -4.21270000       0.35370000
C       -2.31040000      -3.07310000       0.17080000
H        0.94840000       1.88470000      -0.46010000
H       -0.59990000       1.63920000      -1.34000000
H       -0.63640000       1.88320000       0.38850000
H        0.51090000      -3.23370000      -0.64150000
H        0.47400000      -2.98630000       1.11190000
H       -1.26900000      -4.96280000      -0.43740000
H       -1.30610000      -4.71460000       1.32070000
H       -2.96410000      -2.87630000       1.02650000
H       -2.92680000      -3.12450000      -0.73230000
