20
Properties=species:S:1:pos:R:3 gdb_106247=T pbc="F F F"
C        0.32480000       1.27380000       0.57910000
C       -0.08270000       0.15550000      -0.39060000
C       -1.46970000      -0.35720000      -0.12290000
C       -1.81830000      -1.32280000       1.01560000
C       -2.59680000      -2.10130000      -0.05440000
O       -3.22500000      -3.11380000      -0.07910000
N       -2.20860000      -1.24700000      -1.15930000
C       -2.67460000       0.14290000      -0.80800000
C       -4.02970000       0.41660000      -0.19800000
H        1.33970000       1.62140000       0.36690000
H       -0.34980000       2.13240000       0.49900000
H        0.30120000       0.92790000       1.61800000
H       -0.03340000       0.51730000      -1.42380000
H        0.62800000      -0.67720000      -0.31800000
H       -0.95610000      -1.89600000       1.36820000
H       -2.37290000      -0.94740000       1.87870000
H       -2.45260000       0.79710000      -1.64990000
H       -4.24310000      -0.20500000       0.67420000
H       -4.09130000       1.46560000       0.10980000
H       -4.81670000       0.23630000      -0.93690000
