15
Properties=species:S:1:pos:R:3 gdb_79670=T pbc="F F F"
O        0.10420000       1.42160000      -0.05900000
C       -0.03840000       0.06280000       0.04850000
C       -0.42970000      -0.74350000       1.25250000
C       -1.61880000      -0.17720000       2.06280000
N       -2.04010000       1.12440000       1.46570000
C       -2.48720000      -0.16350000       0.87390000
C       -1.35250000      -0.73280000      -0.02460000
C       -1.57820000      -1.78160000      -0.95380000
N       -1.76830000      -2.63620000      -1.71360000
H       -0.61780000       1.79970000       0.47600000
H        0.72970000      -0.44360000      -0.53260000
H        0.15010000      -1.58810000       1.60300000
H       -1.84110000      -0.41510000       3.09350000
H       -2.80780000       1.49300000       2.02470000
H       -3.53550000      -0.39950000       0.75490000
