10
Properties=species:S:1:pos:R:3 gdb_330=T pbc="F F F"
N       -0.02820000       1.49200000       0.06700000
C       -0.02650000       0.02760000      -0.02210000
C       -1.38370000      -0.50480000       0.11360000
C       -2.49720000      -0.93820000       0.21830000
C        0.60110000      -0.48920000      -1.26700000
N        1.12370000      -0.83320000      -2.23860000
H        0.92010000       1.83750000      -0.05300000
H       -0.58360000       1.87630000      -0.69220000
H        0.57970000      -0.34760000       0.81350000
H       -3.48270000      -1.32360000       0.31350000
