22
Properties=species:S:1:pos:R:3 gdb_6550=T pbc="F F F"
C       -1.82270000       0.18810000       1.43480000
C       -0.68770000      -0.00590000       0.44740000
C        0.09540000       1.17010000      -0.09030000
C        0.79040000       0.13420000       0.75450000
C        1.41300000       0.46970000       2.11290000
C        1.53510000      -0.80120000       2.96610000
C        2.79040000       1.10650000       1.89360000
O        0.65710000       1.45940000       2.82320000
H       -1.70680000       1.10610000       2.01460000
H       -2.77570000       0.26540000       0.89940000
H       -1.91300000      -0.65500000       2.13090000
H       -0.89830000      -0.78740000      -0.27970000
H        0.31650000       1.23020000      -1.15060000
H       -0.08970000       2.12570000       0.38990000
H        1.41410000      -0.56700000       0.20320000
H        2.15010000      -1.55590000       2.46590000
H        1.99290000      -0.56890000       3.93270000
H        0.54970000      -1.24730000       3.14440000
H        2.68610000       2.04060000       1.33540000
H        3.26110000       1.32980000       2.85530000
H        3.44640000       0.43710000       1.32920000
H       -0.06870000       1.01230000       3.26810000
