21
Properties=species:S:1:pos:R:3 gdb_76226=T pbc="F F F"
C       -0.09770000       1.51460000       0.05150000
C       -0.00260000      -0.01690000      -0.02180000
C        0.79560000      -0.53850000      -1.21590000
C        0.45890000      -0.14440000      -2.61880000
C        1.79440000      -1.33950000      -0.82410000
C        1.84660000      -1.42710000       0.66110000
O        2.07920000      -0.14660000       1.30990000
C        0.73080000      -0.62310000       1.18640000
C       -0.00410000      -0.87960000       2.47320000
H        0.90270000       1.94570000       0.14300000
H       -0.57930000       1.92980000      -0.83870000
H       -0.68640000       1.82670000       0.92040000
H       -1.02320000      -0.42720000      -0.06410000
H        0.59610000       0.93240000      -2.77760000
H        1.08620000      -0.67180000      -3.34230000
H       -0.59160000      -0.36210000      -2.85160000
H        2.49830000      -1.83580000      -1.48200000
H        2.26940000      -2.28200000       1.18170000
H       -0.38030000       0.05710000       2.90040000
H       -0.86150000      -1.54100000       2.30900000
H        0.66050000      -1.34120000       3.20770000
