23
Properties=species:S:1:pos:R:3 gdb_100807=T pbc="F F F"
C       -0.23050000       1.55180000      -0.00330000
C        0.04510000       0.04500000       0.00800000
C        0.80660000      -0.47560000      -1.22840000
C        2.26890000      -0.00300000      -1.23060000
C        0.68570000      -2.01490000      -1.31280000
O       -0.67250000      -2.43210000      -1.30350000
C        1.42810000      -2.61290000      -2.53120000
C        1.28950000      -4.05950000      -2.63730000
C        1.19020000      -5.25400000      -2.72160000
H        0.68910000       2.14570000      -0.00940000
H       -0.81530000       1.83940000      -0.88470000
H       -0.80190000       1.84780000       0.88200000
H        0.61560000      -0.21880000       0.90960000
H       -0.90290000      -0.49580000       0.07530000
H        0.31110000      -0.06860000      -2.12580000
H        2.77430000      -0.20560000      -2.17870000
H        2.33220000       1.07500000      -1.05990000
H        2.83840000      -0.49540000      -0.43290000
H        1.11330000      -2.45340000      -0.40230000
H       -1.07780000      -2.14640000      -2.13030000
H        1.04680000      -2.13480000      -3.44640000
H        2.49140000      -2.35620000      -2.47680000
H        1.09500000      -6.30880000      -2.79390000
