19
Properties=species:S:1:pos:R:3 gdb_116571=T pbc="F F F"
C        0.43490000       0.80850000       0.67550000
C       -0.20450000       0.21260000      -0.58590000
N        0.60670000      -0.58810000      -1.49020000
C        1.69480000      -1.14430000      -1.19990000
N        2.61220000      -1.20050000      -0.08300000
C        3.68210000      -1.68700000      -1.00860000
C        3.27580000      -3.05920000      -1.45700000
C        2.63150000      -1.86950000      -2.12170000
O        2.61080000      -1.73540000      -3.48580000
H        0.78860000       0.03280000       1.36010000
H        1.27230000       1.46910000       0.42410000
H       -0.30570000       1.41280000       1.20960000
H       -1.06260000      -0.40960000      -0.29580000
H       -0.63060000       1.02710000      -1.18480000
H        2.79430000      -0.30910000       0.36130000
H        4.68320000      -1.27930000      -0.99720000
H        3.98500000      -3.55290000      -2.11590000
H        2.72550000      -3.71240000      -0.78440000
H        2.10170000      -0.93600000      -3.67330000
