21
Properties=species:S:1:pos:R:3 gdb_68926=T pbc="F F F"
C       -0.02890000       1.51740000       0.01700000
C        0.03320000       0.00300000       0.01870000
C        1.38850000      -0.66270000      -0.19080000
C        0.71460000      -0.71300000       1.15860000
O        1.23120000       0.11820000       2.16680000
C        0.10670000      -2.00280000       1.67790000
C       -0.84520000      -2.63880000       0.66170000
O       -1.78770000      -1.68900000       0.20880000
C       -1.19560000      -0.68570000      -0.59760000
H        0.85420000       1.94970000       0.48970000
H       -0.09640000       1.90100000      -1.00800000
H       -0.90890000       1.87240000       0.56520000
H        1.43640000      -1.56240000      -0.79830000
H        2.25200000      -0.01120000      -0.27640000
H        2.03180000      -0.29670000       2.50670000
H        0.89160000      -2.71810000       1.96060000
H       -0.45880000      -1.75750000       2.58350000
H       -0.28890000      -3.06900000      -0.18890000
H       -1.41480000      -3.44960000       1.12480000
H       -1.98390000       0.05440000      -0.76170000
H       -0.92870000      -1.11100000      -1.58040000
