20
Properties=species:S:1:pos:R:3 gdb_106061=T pbc="F F F"
C        0.11560000       1.58960000      -0.01070000
C       -0.04900000       0.09350000      -0.00460000
C        0.44370000      -0.79050000      -1.18880000
C       -0.61470000      -1.79610000      -0.74960000
N       -0.68530000      -1.81280000       0.76270000
C        0.31820000      -0.79050000       1.20230000
C       -1.39420000      -0.76400000      -0.03290000
C       -2.86320000      -0.53670000       0.15440000
O       -3.51600000      -1.77270000       0.36370000
H        1.17790000       1.86030000       0.01940000
H       -0.31380000       2.03770000      -0.91320000
H       -0.36810000       2.05090000       0.85710000
H        0.18210000      -0.35340000      -2.15650000
H        1.49810000      -1.08880000      -1.18900000
H       -0.95950000      -2.69290000      -1.24650000
H        1.35130000      -1.14930000       1.28890000
H       -0.00860000      -0.37510000       2.16010000
H       -3.02630000       0.15790000       0.99690000
H       -3.31050000      -0.07670000      -0.73460000
H       -2.93060000      -2.27850000       0.94530000
