19
Properties=species:S:1:pos:R:3 gdb_83483=T pbc="F F F"
C       -0.14930000       1.54540000      -0.00950000
C        0.05310000       0.03470000       0.03080000
C        1.07500000      -0.57150000      -0.95120000
C        2.43060000      -0.01410000      -0.48140000
C        2.25120000      -0.00900000       1.06830000
C        0.80480000      -0.56690000       1.24540000
C        0.88830000      -2.01820000       0.78710000
O        0.85990000      -3.03940000       1.40790000
O        1.05310000      -1.97650000      -0.57530000
H        0.77830000       2.10440000       0.13680000
H       -0.57230000       1.85040000      -0.97270000
H       -0.85050000       1.85730000       0.77080000
H       -0.91380000      -0.46200000      -0.10570000
H        0.86160000      -0.50620000      -2.01750000
H        3.24340000      -0.66250000      -0.81400000
H        2.61190000       0.98620000      -0.88310000
H        2.98630000      -0.63030000       1.58380000
H        2.32480000       0.99790000       1.48560000
H        0.37390000      -0.45540000       2.23820000
