19
Properties=species:S:1:pos:R:3 gdb_86100=T pbc="F F F"
C       -0.03750000       1.45830000      -0.02520000
N       -0.05220000       0.02340000       0.16250000
C       -1.36000000      -0.62950000       0.12390000
C       -1.18180000      -1.85160000       0.99090000
C       -2.20950000      -2.93340000       1.05650000
C       -0.03430000      -1.76560000       1.65960000
C        0.68470000      -0.47760000       1.32270000
C        2.11750000      -0.66390000       1.01330000
N        3.24360000      -0.79970000       0.79270000
H        0.99570000       1.81540000      -0.07370000
H       -0.51970000       1.70970000      -0.97470000
H       -0.55810000       2.01090000       0.77990000
H       -2.16830000       0.01020000       0.53120000
H       -1.64780000      -0.87640000      -0.90830000
H       -2.35940000      -3.39210000       0.07160000
H       -1.92140000      -3.71840000       1.75970000
H       -3.18290000      -2.53450000       1.36800000
H        0.36090000      -2.47730000       2.37240000
H        0.64450000       0.21770000       2.18610000
