15
Properties=species:S:1:pos:R:3 gdb_130406=T pbc="F F F"
N       -0.39080000       0.34150000      -0.85470000
H       -0.09520000      -0.20120000      -0.04620000
H        0.25890000       0.11380000      -1.60250000
H       -1.28980000      -0.03850000      -1.13860000
C        0.11620000       2.56000000       1.56060000
C        0.48010000       1.66540000       2.48010000
C        0.87800000       1.89160000       3.87940000
O        0.98240000       2.89510000       4.55490000
C        1.15090000       0.51050000       4.33700000
O        1.55000000       0.23570000       5.57620000
N        0.96340000      -0.37440000       3.42320000
O        0.54210000       0.31200000       2.24430000
H        0.09970000       3.60510000       1.84700000
H       -0.15600000       2.25370000       0.55370000
H        1.60420000       1.08930000       6.03570000
