17
Properties=species:S:1:pos:R:3 gdb_70073=T pbc="F F F"
O       -0.03430000       1.36920000       0.17640000
C       -0.00570000      -0.01330000      -0.05950000
C       -0.67550000      -0.50210000      -1.30900000
C       -1.35140000      -0.67900000       0.06190000
C       -1.40650000      -2.03330000       0.64010000
C       -0.31420000      -2.76300000       0.91660000
C        1.05200000      -2.23880000       0.73640000
O        2.03330000      -2.95080000       0.81750000
C        1.19730000      -0.72870000       0.52090000
H        0.64210000       1.77810000      -0.37580000
H       -1.09880000       0.25140000      -1.96330000
H       -0.31150000      -1.40170000      -1.79400000
H       -2.19500000      -0.02550000       0.25210000
H       -2.39380000      -2.45870000       0.80490000
H       -0.38280000      -3.78480000       1.27420000
H        2.10040000      -0.55680000      -0.07460000
H        1.39060000      -0.29930000       1.51340000
