9
Properties=species:S:1:pos:R:3 gdb_133449=T pbc="F F F"
F        0.09260000       0.05260000      -0.25140000
C       -0.01710000       1.33670000      -0.02120000
N       -1.21280000       1.78670000       0.10460000
O       -1.29900000       3.16060000       0.34770000
C       -0.20510000       3.97590000       0.44620000
O       -0.31860000       5.14640000       0.65510000
C        1.07860000       3.24570000       0.26780000
F        2.14750000       3.98260000       0.35320000
N        1.18090000       1.99820000       0.04600000
