21
Properties=species:S:1:pos:R:3 gdb_94574=T pbc="F F F"
O        0.23940000       0.91980000      -0.78490000
C        0.04370000      -0.22440000       0.01580000
C       -0.05910000      -0.06550000       1.55730000
C       -1.28070000      -1.02610000       1.52400000
C       -1.41000000      -0.77080000      -0.01010000
C       -2.45110000       0.27130000      -0.38250000
C       -2.61900000       0.59920000      -1.88220000
O       -3.99820000       0.16830000      -1.87090000
C       -3.91840000      -0.20950000      -0.48310000
H        1.15720000       1.19810000      -0.70640000
H        0.75920000      -1.01640000      -0.24770000
H        0.80520000      -0.35490000       2.16010000
H       -0.34750000       0.95640000       1.81800000
H       -1.00550000      -2.05890000       1.75100000
H       -2.14170000      -0.75500000       2.13950000
H       -1.55700000      -1.66210000      -0.62930000
H       -2.33730000       1.16720000       0.23190000
H       -2.51710000       1.65430000      -2.15920000
H       -2.00480000      -0.00510000      -2.56160000
H       -4.06630000      -1.28960000      -0.34090000
H       -4.65020000       0.32880000       0.13240000
