20
Properties=species:S:1:pos:R:3 gdb_88760=T pbc="F F F"
C       -0.03080000       1.48370000      -0.28960000
C       -0.01440000       0.00770000       0.02040000
O        1.24980000      -0.66250000      -0.01010000
C        0.54490000      -0.59650000       1.24230000
C        1.19990000       0.17610000       2.35250000
C        0.32190000       0.59460000       3.59580000
C        1.27800000      -0.20190000       4.48930000
N        1.21400000      -1.60050000       4.00050000
C        2.09600000      -0.62020000       3.32050000
H        0.76370000       2.02100000       0.23200000
H        0.10310000       1.64460000      -1.36460000
H       -0.99410000       1.92110000      -0.00460000
H       -0.81190000      -0.55540000      -0.47090000
H        0.12720000      -1.55050000       1.56460000
H        1.73810000       1.03670000       1.95220000
H        0.34530000       1.67200000       3.77010000
H       -0.71330000       0.24350000       3.60220000
H        1.57380000       0.01430000       5.50830000
H        1.80900000      -2.16270000       4.60810000
H        3.16010000      -0.80150000       3.23200000
