19
Properties=species:S:1:pos:R:3 gdb_114749=T pbc="F F F"
C        0.53970000       0.69360000       0.09000000
O       -0.24170000      -0.22720000      -0.65180000
C       -1.53250000      -0.45660000      -0.11160000
C       -2.52490000      -0.75440000      -1.25900000
C       -2.67890000      -2.26140000      -1.27290000
O       -1.42620000      -2.95790000      -1.29610000
C       -2.12200000      -2.83350000      -0.04490000
C       -1.52780000      -1.73330000       0.81680000
O       -0.24270000      -2.04400000       1.30450000
H        1.48860000       0.80370000      -0.44120000
H        0.04920000       1.67740000       0.14470000
H        0.73510000       0.33630000       1.10820000
H       -1.84590000       0.42730000       0.45730000
H       -3.49810000      -0.28800000      -1.06730000
H       -2.13940000      -0.35960000      -2.20260000
H       -3.48540000      -2.73530000      -1.82710000
H       -2.46170000      -3.76560000       0.39940000
H       -2.16240000      -1.56840000       1.69500000
H        0.32240000      -2.06350000       0.52030000
