15
Properties=species:S:1:pos:R:3 gdb_128376=T pbc="F F F"
C        0.05450000       1.41190000      -0.02390000
N       -0.08610000      -0.02560000       0.00500000
C       -1.26740000      -0.66570000       0.00380000
N       -2.37740000       0.02690000      -0.02570000
O       -3.56550000      -0.72100000      -0.02490000
C       -3.54370000      -2.04530000       0.00440000
C       -2.42790000      -2.81210000       0.03580000
C       -1.15280000      -2.16180000       0.03820000
O       -0.04520000      -2.68550000       0.06430000
H        1.11610000       1.66310000      -0.01640000
H       -0.40700000       1.83620000      -0.92310000
H       -0.42830000       1.87400000       0.84500000
H        0.70980000      -0.64650000       0.02970000
H       -4.55490000      -2.44010000      -0.00020000
H       -2.49570000      -3.89150000       0.05870000
