15
Properties=species:S:1:pos:R:3 gdb_48014=T pbc="F F F"
O       -0.36360000       0.13350000      -0.32390000
C        0.09420000       0.90880000       0.48480000
C        1.24110000       1.74650000       0.25220000
C        2.20410000       2.45960000       0.09030000
C        3.31870000       3.33660000      -0.14560000
C        3.96400000       3.43540000      -1.57240000
C        3.94370000       4.98930000      -1.49520000
C        3.04520000       4.88280000      -0.25740000
O        2.34670000       5.63190000       0.34690000
H       -0.35550000       1.02830000       1.49130000
H        4.08930000       3.19550000       0.62360000
H        4.94230000       2.96620000      -1.67120000
H        3.29600000       3.04390000      -2.34000000
H        4.91280000       5.43480000      -1.24750000
H        3.51560000       5.53880000      -2.33650000
