16
Properties=species:S:1:pos:R:3 gdb_23107=T pbc="F F F"
O        0.04620000       1.30190000       0.16470000
N        0.07380000      -0.09430000       0.00850000
C       -1.09260000      -0.61420000      -0.01200000
C       -1.23270000      -2.12370000      -0.17730000
C       -2.74270000      -2.40450000       0.02320000
C       -3.35440000      -1.04160000       0.12780000
C       -2.44960000      -0.04100000       0.11220000
C       -2.86710000       1.38750000       0.20870000
O       -4.02740000       1.71030000       0.33890000
H        0.98250000       1.52590000       0.16470000
H       -0.90440000      -2.42160000      -1.17760000
H       -0.60220000      -2.65840000       0.53620000
H       -3.18350000      -2.98070000      -0.79900000
H       -2.94420000      -2.98490000       0.93340000
H       -4.42030000      -0.86580000       0.21860000
H       -2.06150000       2.13530000       0.14920000
