17
Properties=species:S:1:pos:R:3 gdb_46934=T pbc="F F F"
N        0.06170000       0.90810000       0.78330000
C        0.01460000      -0.05160000      -0.03920000
O        1.06240000      -0.36560000      -0.86010000
C        1.28180000      -1.72690000      -1.26830000
C        0.18740000      -2.66480000      -0.79480000
C       -0.08460000      -2.75850000       0.75200000
C       -1.41210000      -2.01990000       0.52890000
C       -1.19620000      -2.01930000      -0.95770000
N       -1.18180000      -0.78130000      -0.20580000
H        1.00070000       1.30700000       0.78220000
H        1.33860000      -1.72830000      -2.36330000
H        2.26240000      -2.02560000      -0.87770000
H        0.30250000      -3.64360000      -1.26380000
H       -0.22770000      -3.79350000       1.06900000
H        0.62860000      -2.27370000       1.42570000
H       -2.32350000      -2.10960000       1.10650000
H       -1.89220000      -2.12130000      -1.78220000
