24
Properties=species:S:1:pos:R:3 gdb_102323=T pbc="F F F"
C        0.14790000       1.39530000       0.21380000
C       -0.07250000      -0.07360000      -0.16470000
N        0.63960000      -0.48860000      -1.36570000
C        2.07750000      -0.73660000      -1.30330000
C        2.46540000      -2.10830000      -0.71580000
C        1.91180000      -3.26820000      -1.55150000
C        3.99230000      -2.19090000      -0.58740000
C       -0.00630000      -0.56690000      -2.56390000
O        0.50380000      -0.85380000      -3.62780000
H        1.20330000       1.61010000       0.40600000
H       -0.19170000       2.05690000      -0.58870000
H       -0.41220000       1.63930000       1.12220000
H        0.22420000      -0.72420000       0.66610000
H       -1.13990000      -0.25290000      -0.33200000
H        2.45030000      -0.65710000      -2.32810000
H        2.54650000       0.05930000      -0.71230000
H        2.04060000      -2.18000000       0.29600000
H        2.30080000      -3.23320000      -2.57450000
H        2.19260000      -4.23080000      -1.11170000
H        0.82090000      -3.23300000      -1.61450000
H        4.38950000      -1.38550000       0.04020000
H        4.29710000      -3.14330000      -0.14300000
H        4.47220000      -2.11530000      -1.57030000
H       -1.08630000      -0.33730000      -2.46190000
