19
Properties=species:S:1:pos:R:3 gdb_119308=T pbc="F F F"
O       -0.26410000       1.46990000       0.24100000
C       -0.01200000       0.08120000       0.10180000
C       -1.36610000      -0.60290000      -0.05550000
C       -1.29220000      -2.13580000      -0.14050000
C       -1.04750000      -2.84380000       1.23640000
N       -2.50860000      -3.01610000       1.37230000
C       -2.70240000      -2.81220000      -0.07870000
C       -0.43810000      -2.58040000      -1.23410000
N        0.23920000      -2.93770000      -2.10100000
H        0.58070000       1.92850000       0.26440000
H        0.61620000      -0.12880000      -0.77660000
H        0.51410000      -0.31880000       0.98400000
H       -2.00060000      -0.34320000       0.79780000
H       -1.85350000      -0.21220000      -0.95540000
H       -0.47730000      -3.77420000       1.12060000
H       -0.58460000      -2.23400000       2.01890000
H       -2.80760000      -3.91680000       1.72740000
H       -3.54970000      -2.17120000      -0.34320000
H       -2.74270000      -3.73100000      -0.67730000
