21
Properties=species:S:1:pos:R:3 gdb_88618=T pbc="F F F"
O       -0.93530000       0.07350000       2.42150000
C       -0.41850000      -0.57530000       1.29350000
C       -1.02720000      -1.82940000       0.74390000
C       -1.13620000      -0.52080000      -0.03440000
C       -2.43550000       0.25350000      -0.12140000
C       -3.19130000       0.37020000      -1.48410000
C       -3.65050000      -1.10640000      -1.30160000
C       -3.83390000      -0.42820000       0.08790000
C       -4.44700000       0.78460000      -0.66780000
H       -1.85770000      -0.17880000       2.52770000
H        0.66270000      -0.48640000       1.29610000
H       -0.37980000      -2.61600000       0.37050000
H       -1.93300000      -2.19490000       1.22050000
H       -0.49850000      -0.43540000      -0.91120000
H       -2.33780000       1.21150000       0.40340000
H       -2.81380000       0.83680000      -2.39610000
H       -4.56750000      -1.39720000      -1.82180000
H       -2.88500000      -1.87910000      -1.38150000
H       -4.21930000      -0.88990000       1.00060000
H       -4.40890000       1.75330000      -0.16160000
H       -5.41580000       0.61780000      -1.14580000
