16
Properties=species:S:1:pos:R:3 gdb_22010=T pbc="F F F"
C       -0.02480000       1.48560000      -0.05000000
C       -0.01760000      -0.01920000       0.04660000
N       -0.02130000      -0.69320000       1.14100000
O       -0.03300000       0.11560000       2.27730000
C       -0.00550000      -0.80690000      -1.18300000
C        0.00310000      -2.17540000      -1.41600000
C        0.01290000      -2.30400000      -2.81440000
N        0.01070000      -1.11910000      -3.42740000
N       -0.00040000      -0.23110000      -2.41970000
H        0.86180000       1.84120000      -0.58730000
H       -0.90810000       1.83190000      -0.59870000
H       -0.03350000       1.93620000       0.93990000
H       -0.03430000      -0.53510000       2.98730000
H        0.00220000      -2.94750000      -0.66560000
H        0.02160000      -3.20810000      -3.40530000
H       -0.00430000       0.75020000      -2.63980000
