16
Properties=species:S:1:pos:R:3 gdb_5906=T pbc="F F F"
C        0.03290000       1.56410000      -0.00210000
C        0.02750000       0.02080000       0.02700000
C        0.80660000      -0.50720000       1.25050000
C       -1.43720000      -0.52480000       0.02930000
C       -2.18920000      -0.09450000       1.20520000
N       -2.77090000       0.25370000       2.14090000
C        0.66140000      -0.48550000      -1.20160000
N        1.15500000      -0.88480000      -2.16710000
H        1.05780000       1.94110000      -0.03170000
H       -0.49720000       1.94520000      -0.87910000
H       -0.45500000       1.95080000       0.89670000
H        0.33120000      -0.15420000       2.16960000
H        0.82690000      -1.60030000       1.26500000
H        1.83750000      -0.14630000       1.23060000
H       -1.96060000      -0.18360000      -0.86960000
H       -1.42450000      -1.61910000      -0.00140000
