22
Properties=species:S:1:pos:R:3 gdb_106708=T pbc="F F F"
C        0.24110000       1.48620000       0.22590000
C       -0.15790000       0.03810000      -0.09090000
C        0.50350000      -0.48020000      -1.33790000
N        1.90560000      -0.91990000      -1.26210000
C        0.90650000      -1.88080000      -1.75150000
C        0.76200000      -3.19980000      -1.05070000
C        0.50700000      -1.58110000      -3.18640000
C       -0.93510000      -1.14590000      -3.25330000
C        0.10150000      -0.16350000      -2.76950000
H        1.32330000       1.56270000       0.36820000
H       -0.04120000       2.16330000      -0.58770000
H       -0.24850000       1.84010000       1.13830000
H        0.11710000      -0.60780000       0.75000000
H       -1.24700000      -0.03050000      -0.20620000
H        2.46890000      -0.53680000      -2.01900000
H        0.88830000      -3.08140000       0.02850000
H       -0.22110000      -3.64220000      -1.24380000
H        1.52200000      -3.91040000      -1.39680000
H        1.05960000      -1.87520000      -4.07250000
H       -1.33090000      -0.96680000      -4.24940000
H       -1.66020000      -1.55790000      -2.55630000
H        0.30700000       0.76060000      -3.29910000
