15
Properties=species:S:1:pos:R:3 gdb_45269=T pbc="F F F"
O       -0.15550000       0.13110000       0.35750000
C       -0.03580000       1.26970000       0.04930000
O       -0.99850000       2.11990000      -0.43640000
C       -0.02810000       3.20100000      -0.64730000
C       -0.24480000       4.44150000       0.22940000
C        0.60380000       4.21260000       1.46850000
O        0.25960000       3.02970000       2.19260000
C        1.39760000       2.97560000       1.32450000
C        1.08300000       2.32630000      -0.01270000
H        0.04000000       3.41640000      -1.71450000
H        0.09760000       5.33890000      -0.29750000
H       -1.30360000       4.57500000       0.47010000
H        0.92590000       5.05290000       2.07940000
H        2.35430000       2.81100000       1.81080000
H        1.96210000       2.06410000      -0.60070000
