17
Properties=species:S:1:pos:R:3 gdb_98370=T pbc="F F F"
O        0.14320000       1.36440000      -0.00530000
C        0.04500000      -0.02310000      -0.11940000
C       -1.37590000      -0.50580000       0.09950000
O       -2.25660000       0.29770000       0.33860000
C       -1.71750000      -1.99360000       0.04780000
O       -3.04490000      -2.19320000       0.45350000
C       -1.49710000      -2.56110000      -1.37680000
C       -1.87130000      -4.03140000      -1.44860000
O       -1.13620000      -4.88430000      -1.87450000
H       -0.74890000       1.67870000       0.20480000
H        0.38730000      -0.36130000      -1.11020000
H        0.68940000      -0.53380000       0.61620000
H       -1.03720000      -2.51600000       0.73930000
H       -3.42490000      -1.30690000       0.56350000
H       -2.14950000      -2.00790000      -2.06580000
H       -0.45930000      -2.45730000      -1.70390000
H       -2.88810000      -4.26750000      -1.07570000
