16
Properties=species:S:1:pos:R:3 gdb_68806=T pbc="F F F"
C       -0.07290000       1.50630000       0.04970000
C        0.05080000       0.02150000       0.07930000
C        1.23450000      -0.81550000      -0.34010000
C        0.63390000      -0.98790000       1.03890000
O        1.30130000      -0.81320000       2.22440000
C       -0.71940000      -1.70670000       0.91160000
O       -1.15590000      -0.75630000      -0.09040000
C       -0.72840000      -3.09470000       0.44750000
N       -0.70010000      -4.19540000       0.09590000
H        0.88020000       1.96920000       0.31910000
H       -0.34800000       1.85030000      -0.95300000
H       -0.83890000       1.84600000       0.75280000
H        1.13200000      -1.57880000      -1.10650000
H        2.18300000      -0.28680000      -0.32450000
H        2.03170000      -1.44130000       2.26650000
H       -1.31930000      -1.61210000       1.82360000
