18
Properties=species:S:1:pos:R:3 gdb_60740=T pbc="F F F"
C       -0.29710000       1.49160000       0.05550000
N        0.04320000       0.07080000       0.00060000
C        0.06450000      -0.64070000       1.20290000
O       -0.18170000      -0.14660000       2.27720000
C        0.34810000      -0.61430000      -1.18990000
O        0.62490000      -1.79870000      -1.18310000
C        0.31690000       0.17240000      -2.45420000
C        1.31410000      -0.24520000      -3.52780000
C       -0.12540000      -0.58160000      -3.70190000
H        0.52490000       2.11130000      -0.31260000
H       -1.20000000       1.70630000      -0.52230000
H       -0.47990000       1.72770000       1.10350000
H        0.33040000      -1.69260000       1.04600000
H        0.06560000       1.22160000      -2.40260000
H        1.74720000       0.54790000      -4.12600000
H        1.98430000      -1.05110000      -3.25430000
H       -0.41810000      -1.61270000      -3.54510000
H       -0.71380000      -0.02710000      -4.42360000
