14
Properties=species:S:1:pos:R:3 gdb_8807=T pbc="F F F"
C       -0.01270000       1.37330000       0.00640000
O        0.02560000      -0.06160000      -0.03550000
C        0.63180000      -0.58490000      -1.09760000
O        1.13560000       0.04240000      -1.99850000
C        0.62560000      -2.12950000      -1.05960000
O        0.12330000      -2.74640000      -0.16180000
C        1.31210000      -2.75250000      -2.26110000
O        1.25910000      -4.14820000      -2.14370000
H        1.00100000       1.78130000       0.01890000
H       -0.54110000       1.76610000      -0.86570000
H       -0.54140000       1.62690000       0.92420000
H        0.81040000      -2.36810000      -3.16470000
H        2.33950000      -2.35340000      -2.29830000
H        1.69580000      -4.52680000      -2.91200000
