14
Properties=species:S:1:pos:R:3 gdb_538=T pbc="F F F"
C        0.02940000       1.39110000       0.13290000
O        0.00180000      -0.01500000       0.04910000
C       -1.30150000      -0.52880000      -0.08990000
C       -1.20220000      -2.04990000      -0.20550000
C       -2.55460000      -2.71780000      -0.11340000
O       -3.00690000      -3.47750000      -0.92970000
H        1.07470000       1.69010000       0.23870000
H       -0.38630000       1.86240000      -0.77140000
H       -0.53660000       1.75960000       1.00310000
H       -1.92210000      -0.25050000       0.78080000
H       -1.79330000      -0.10800000      -0.98290000
H       -0.71210000      -2.34630000      -1.13550000
H       -0.59380000      -2.40570000       0.63790000
H       -3.13350000      -2.45570000       0.80420000
