20
Properties=species:S:1:pos:R:3 gdb_97923=T pbc="F F F"
C       -0.44290000       1.48820000      -0.42470000
C       -0.10400000       0.05750000      -0.06390000
C       -1.21520000      -0.72570000       0.63750000
C       -1.68610000      -0.09780000       1.86870000
C       -2.05140000       0.43930000       2.88390000
C       -2.55260000       1.07560000       4.10110000
O       -3.59710000       2.01220000       3.86570000
C        0.85110000      -0.69280000      -0.91860000
N        1.24340000      -0.25430000       0.43590000
H        0.39180000       1.96900000      -0.94470000
H       -1.31800000       1.53240000      -1.08320000
H       -0.67490000       2.06930000       0.47330000
H       -2.05930000      -0.84820000      -0.05540000
H       -0.84130000      -1.73110000       0.86030000
H       -2.86810000       0.29760000       4.81510000
H       -1.75180000       1.64230000       4.58920000
H       -4.26090000       1.56880000       3.32740000
H        0.75600000      -1.76910000      -1.03900000
H        1.27300000      -0.18050000      -1.77960000
H        1.83810000       0.56870000       0.37640000
