15
Properties=species:S:1:pos:R:3 gdb_131872=T pbc="F F F"
O       -0.03110000       1.42190000      -0.00320000
C       -0.01500000       0.00960000       0.01610000
C       -1.41310000      -0.57990000       0.03920000
O       -2.03650000      -0.17240000      -1.19570000
C       -3.31630000      -0.51720000      -1.36660000
C       -4.14510000      -0.21750000      -2.40520000
O       -5.33080000      -0.78310000      -2.14910000
N       -5.21820000      -1.44600000      -0.91620000
N       -4.03850000      -1.27730000      -0.48320000
H       -0.54960000       1.68300000      -0.77190000
H        0.53790000      -0.40410000      -0.84180000
H        0.50930000      -0.29180000       0.92850000
H       -1.39040000      -1.67370000       0.10070000
H       -1.99020000      -0.18890000       0.88360000
H       -4.03540000       0.34090000      -3.31770000
