17
Properties=species:S:1:pos:R:3 gdb_55046=T pbc="F F F"
C        1.93400000       0.63610000       0.08450000
C        1.63610000      -0.84320000      -0.04090000
O        2.10120000      -1.66340000       0.72470000
C        0.72800000      -1.22700000      -1.17630000
C        0.94130000      -2.56510000      -1.82970000
N       -0.26350000      -2.31580000      -1.07440000
C       -0.44050000      -3.01690000       0.20200000
C       -1.07270000      -4.31620000      -0.04150000
N       -1.55590000      -5.35000000      -0.21930000
H        2.34180000       1.02390000      -0.85610000
H        1.00860000       1.19100000       0.27910000
H        2.64300000       0.80500000       0.89490000
H        0.37660000      -0.39880000      -1.78610000
H        0.81940000      -2.65550000      -2.90500000
H        1.71130000      -3.18890000      -1.38020000
H        0.49320000      -3.16890000       0.75700000
H       -1.10700000      -2.41850000       0.83310000
