22
Properties=species:S:1:pos:R:3 gdb_113796=T pbc="F F F"
C        0.02370000       1.63330000       0.13590000
C        0.40220000       0.19510000      -0.20910000
N        0.76550000      -0.53010000       1.01110000
C       -0.29620000      -1.22400000       1.73240000
C        0.76230000      -1.99400000       1.01650000
C        0.44880000      -2.83900000      -0.19180000
O       -0.81580000      -2.66400000      -0.78210000
C        1.54100000      -3.12910000      -1.18160000
C        1.04440000      -4.22730000      -0.26580000
H        0.83850000       2.12990000       0.67070000
H       -0.19770000       2.20300000      -0.77210000
H       -0.86480000       1.66160000       0.77580000
H       -0.41220000      -0.29220000      -0.76210000
H        1.28250000       0.19040000      -0.86290000
H       -0.28520000      -1.13680000       2.81630000
H       -1.28940000      -1.22120000       1.28510000
H        1.57640000      -2.40890000       1.60990000
H       -1.47090000      -3.03930000      -0.18280000
H        1.24570000      -3.17580000      -2.22310000
H        2.52240000      -2.70610000      -0.99900000
H        1.68710000      -4.56570000       0.53990000
H        0.42050000      -4.99560000      -0.70840000
