18
Properties=species:S:1:pos:R:3 gdb_120289=T pbc="F F F"
C       -0.16010000       1.34380000      -0.08180000
O       -0.16300000      -0.05700000      -0.21450000
C        0.86240000      -0.52540000      -1.06700000
C        0.77820000      -2.02700000      -1.11260000
C       -0.17630000      -2.78910000      -1.98760000
O       -0.68820000      -2.11420000      -3.13060000
C        0.39430000      -1.85850000      -3.91060000
N        1.53940000      -2.25780000      -3.52740000
C        1.32410000      -2.88740000      -2.24220000
H        0.78490000       1.71370000       0.34790000
H       -0.31420000       1.84760000      -1.04950000
H       -0.98040000       1.61060000       0.58880000
H        0.76220000      -0.08420000      -2.06900000
H        1.85100000      -0.22150000      -0.68250000
H        0.89840000      -2.49140000      -0.13730000
H       -0.84890000      -3.55010000      -1.61450000
H        0.17760000      -1.31860000      -4.82420000
H        1.95060000      -3.74100000      -2.01400000
