16
Properties=species:S:1:pos:R:3 gdb_87032=T pbc="F F F"
C       -0.21940000       1.58170000       0.23820000
N       -0.17040000       0.12300000       0.32100000
C        0.97810000      -0.55710000      -0.23310000
C        0.76600000      -0.51120000       1.26350000
C        1.68010000       0.31020000       2.02570000
N        2.38030000       1.01800000       2.61280000
C        0.27590000      -1.75640000       1.99830000
N       -0.90910000      -2.22260000       1.52900000
O        0.93640000      -2.26710000       2.87650000
H        0.76650000       2.05730000       0.32460000
H       -0.66130000       1.85090000      -0.72480000
H       -0.86130000       1.96290000       1.03630000
H        0.78420000      -1.49110000      -0.75200000
H        1.79870000       0.04240000      -0.62250000
H       -1.46260000      -1.62790000       0.93190000
H       -1.33220000      -3.00100000       2.00670000
