13
Properties=species:S:1:pos:R:3 gdb_132706=T pbc="F F F"
F        0.01340000       0.02040000       0.00330000
C        0.00150000       1.34980000       0.01030000
C       -1.22400000       2.02130000       0.03020000
N       -1.30700000       3.34290000       0.03810000
C       -0.16350000       4.04670000       0.02640000
C       -0.25410000       5.53650000       0.03530000
O       -1.27560000       6.17170000       0.05230000
C        1.09670000       3.44570000       0.00630000
C        1.19010000       2.05840000      -0.00210000
H       -2.14830000       1.44910000       0.03970000
H        0.74190000       6.03720000       0.02440000
H        1.99150000       4.05950000      -0.00260000
H        2.13950000       1.53630000      -0.01750000
