21
Properties=species:S:1:pos:R:3 gdb_121242=T pbc="F F F"
C       -0.09550000       1.47380000      -0.10650000
C        0.30920000       0.01030000      -0.12850000
O        0.23940000      -0.49450000       1.19540000
C        0.55690000      -1.85220000       1.30060000
C        2.05240000      -2.25230000       1.34940000
O        1.87450000      -2.87870000       2.63990000
C        0.50410000      -2.39790000       2.74250000
C        0.39470000      -1.39320000       3.88080000
O        0.82540000      -2.00000000       5.08520000
H        0.57750000       2.04840000       0.53600000
H       -0.05640000       1.89440000      -1.11560000
H       -1.11330000       1.58370000       0.27790000
H       -0.36000000      -0.57090000      -0.78440000
H        1.33050000      -0.10220000      -0.52670000
H       -0.02680000      -2.44430000       0.58190000
H        2.40710000      -2.96680000       0.59860000
H        2.73340000      -1.39260000       1.39230000
H       -0.18120000      -3.23600000       2.91360000
H        0.98020000      -0.49460000       3.64260000
H       -0.64640000      -1.08620000       4.02210000
H        1.69150000      -2.37920000       4.88920000
