23
Properties=species:S:1:pos:R:3 gdb_56665=T pbc="F F F"
C       -0.06080000       1.62000000       0.05750000
C       -0.16780000       0.08170000       0.00950000
C       -1.56330000      -0.34540000      -0.09730000
C       -2.71030000      -0.69350000      -0.19900000
C        0.70660000      -0.56090000      -1.09680000
C        0.29710000      -0.12090000      -2.50390000
C        2.24900000      -0.44210000      -0.86650000
C        2.39280000      -1.95440000      -1.18500000
C        0.86060000      -2.11260000      -0.99560000
H        0.98770000       1.92610000       0.12500000
H       -0.49930000       2.07850000      -0.83220000
H       -0.59010000       2.01260000       0.92970000
H        0.21830000      -0.30120000       0.96510000
H       -3.72270000      -1.00350000      -0.27860000
H        0.43600000       0.95550000      -2.64870000
H        0.90260000      -0.63180000      -3.25960000
H       -0.75360000      -0.35930000      -2.69600000
H        2.79040000       0.26160000      -1.50480000
H        2.49190000      -0.21740000       0.17710000
H        2.70840000      -2.13550000      -2.21560000
H        3.03720000      -2.53950000      -0.52530000
H        0.60210000      -2.48350000       0.00050000
H        0.31770000      -2.70790000      -1.73390000
