17
Properties=species:S:1:pos:R:3 gdb_11876=T pbc="F F F"
O       -0.11720000       0.13500000      -0.70620000
C       -0.09350000       1.25470000      -0.24650000
C       -1.21250000       1.97340000       0.51860000
C       -0.73590000       3.41520000       0.61180000
C       -1.53030000       4.53310000      -0.01450000
C       -1.38170000       4.44760000       1.48760000
C        0.78520000       3.36550000       0.43190000
N        0.96670000       2.12260000      -0.29670000
H       -2.16800000       1.84820000       0.00500000
H       -1.30320000       1.49660000       1.50290000
H       -0.99220000       5.31810000      -0.53620000
H       -2.49500000       4.29000000      -0.44750000
H       -2.24570000       4.15230000       2.07370000
H       -0.74210000       5.17520000       1.97790000
H        1.16320000       4.22420000      -0.13420000
H        1.30740000       3.34690000       1.40100000
H        1.85940000       1.80540000      -0.64000000
