15
Properties=species:S:1:pos:R:3 gdb_24951=T pbc="F F F"
O       -0.00340000      -0.04270000       0.00410000
C       -0.01110000       1.17060000       0.01010000
N       -1.12530000       2.02300000       0.02970000
C       -0.71080000       3.34380000       0.03020000
C        0.64220000       3.35800000       0.01120000
N        1.08390000       2.04180000      -0.00150000
C        1.12700000       4.72830000       0.01100000
C        0.05010000       5.54510000       0.03030000
C       -1.24530000       4.73830000       0.04440000
H       -2.05990000       1.65490000       0.04090000
H        2.02590000       1.69400000      -0.01600000
H        2.16430000       5.03480000      -0.00210000
H        0.06320000       6.62540000       0.03550000
H       -1.87070000       4.97670000      -0.82610000
H       -1.84600000       4.96800000       0.93440000
