15
Properties=species:S:1:pos:R:3 gdb_69218=T pbc="F F F"
C       -0.02800000       1.53590000       0.01560000
C        0.11360000       0.04190000       0.03330000
N       -0.76600000      -0.83820000       0.84670000
C        0.69580000      -0.80440000       1.10630000
C        1.37370000      -1.94070000       0.42700000
N        2.12350000      -2.80020000       0.95080000
O        1.07100000      -1.87710000      -0.93090000
C        0.43910000      -0.68430000      -1.24880000
O        0.24870000      -0.34650000      -2.37460000
H        0.87970000       2.01100000      -0.36760000
H       -0.85820000       1.83030000      -0.63280000
H       -0.21720000       1.91850000       1.02300000
H       -1.22250000      -0.25470000       1.54770000
H        1.08610000      -0.42560000       2.04130000
H        2.47620000      -3.45770000       0.25310000
