17
Properties=species:S:1:pos:R:3 gdb_38405=T pbc="F F F"
C       -0.00490000       1.57020000      -0.05530000
C        1.52760000       1.51420000      -0.11340000
O        1.96690000       0.83230000       1.06910000
C        1.52670000       0.04420000      -0.04310000
C       -0.00660000       0.00510000       0.01420000
C       -0.72150000      -0.86230000       1.10560000
C       -1.42070000      -1.62160000      -0.02990000
O       -2.15340000      -0.65280000      -0.79240000
C       -0.75340000      -0.80370000      -1.05540000
H       -0.41440000       2.10200000       0.80640000
H       -0.47270000       1.93890000      -0.97150000
H        2.22830000       2.19770000      -0.57840000
H        2.21760000      -0.69570000      -0.43280000
H       -0.01220000      -1.46720000       1.67590000
H       -1.39150000      -0.33800000       1.79060000
H       -1.77320000      -2.64570000      -0.06390000
H       -0.46020000      -1.02660000      -2.07570000
