14
Properties=species:S:1:pos:R:3 gdb_6010=T pbc="F F F"
C       -0.07950000       1.55540000      -0.02370000
C        0.03040000       0.02410000      -0.00800000
O        0.78400000      -0.33510000       1.14880000
C       -1.30740000      -0.59310000       0.05630000
N       -2.33380000      -1.10990000       0.17510000
C        0.71680000      -0.42360000      -1.33710000
N        1.98400000      -0.86730000      -1.16600000
O        0.13720000      -0.33120000      -2.39670000
H        0.92770000       1.98020000      -0.00910000
H       -0.59500000       1.87790000      -0.92910000
H       -0.62380000       1.89870000       0.85780000
H        0.58460000      -1.25140000       1.37410000
H        2.41180000      -0.82360000      -0.25660000
H        2.53340000      -1.08740000      -1.98030000
