17
Properties=species:S:1:pos:R:3 gdb_54512=T pbc="F F F"
N       -0.11710000       1.27730000       0.34280000
C        0.04070000      -0.02090000      -0.03710000
O        1.09750000      -0.51840000      -0.37850000
C       -1.24200000      -0.81200000      -0.04540000
C       -2.41530000      -0.37560000      -0.87200000
N       -2.46630000      -0.24170000       0.58300000
C       -3.13280000      -1.36660000       1.28490000
C       -2.28480000      -2.58960000       1.00170000
C       -1.21440000      -2.26610000       0.27790000
H        0.71000000       1.83870000       0.46170000
H       -0.97260000       1.53810000       0.80920000
H       -2.37600000       0.56820000      -1.40890000
H       -2.99460000      -1.16400000      -1.34760000
H       -3.17970000      -1.14090000       2.35820000
H       -4.16790000      -1.46680000       0.93580000
H       -2.54730000      -3.58200000       1.34780000
H       -0.41320000      -2.91340000      -0.04940000
