15
Properties=species:S:1:pos:R:3 gdb_1965=T pbc="F F F"
C       -0.00120000       1.63030000      -0.03750000
C        0.27370000       0.13520000       0.14770000
C        0.66640000      -0.55380000      -1.14300000
C        0.66340000      -2.09330000      -1.18370000
C       -0.46650000      -1.90400000      -2.19660000
O       -1.18060000      -2.58200000      -2.86140000
O       -0.43040000      -0.53440000      -2.13340000
H        0.88940000       2.15510000      -0.39980000
H       -0.80250000       1.78630000      -0.76520000
H       -0.30160000       2.09340000       0.90640000
H        1.08520000      -0.01810000       0.87100000
H       -0.61310000      -0.36500000       0.55650000
H        1.55020000      -0.09130000      -1.59310000
H        1.55300000      -2.57710000      -1.58980000
H        0.36080000      -2.59400000      -0.26180000
