18
Properties=species:S:1:pos:R:3 gdb_74088=T pbc="F F F"
C       -0.03360000       1.52100000      -0.01710000
C        0.05390000       0.01250000      -0.00660000
C       -0.81220000      -0.81690000       0.92320000
C        0.69410000      -0.78540000       1.09850000
C        1.46680000      -1.91950000       0.43460000
O        2.16580000      -2.72220000       1.01950000
C        1.20170000      -1.81930000      -1.00000000
C        0.43590000      -0.72670000      -1.26380000
N       -0.04420000      -0.30560000      -2.46410000
H        0.90020000       1.97550000      -0.36630000
H       -0.84910000       1.88370000      -0.65590000
H       -0.23100000       1.89890000       0.98990000
H       -1.40380000      -0.27850000       1.65830000
H       -1.27230000      -1.72060000       0.53880000
H        1.10960000      -0.32040000       1.98410000
H        1.55870000      -2.54300000      -1.72060000
H        0.33250000      -0.70540000      -3.30770000
H       -0.39810000       0.63200000      -2.54790000
