17
Properties=species:S:1:pos:R:3 gdb_5962=T pbc="F F F"
C        0.14810000       1.58400000       0.00970000
C       -0.01180000       0.05800000       0.00770000
O        0.68290000      -0.40760000       1.16110000
C       -1.48640000      -0.40360000       0.00860000
C       -2.28230000       0.06050000       1.22570000
O       -3.52760000      -0.61870000       1.17630000
C        0.63990000      -0.49460000      -1.20780000
N        1.14410000      -0.95220000      -2.14150000
H        1.20560000       1.84680000      -0.05610000
H       -0.38220000       2.02950000      -0.83500000
H       -0.25090000       1.99090000       0.94120000
H        0.65570000      -1.37170000       1.16490000
H       -1.97690000      -0.06320000      -0.90920000
H       -1.51200000      -1.49960000      -0.01390000
H       -1.72350000      -0.17880000       2.14160000
H       -2.42610000       1.15090000       1.19900000
H       -4.05310000      -0.33730000       1.93090000
