20
Properties=species:S:1:pos:R:3 gdb_32584=T pbc="F F F"
C       -0.01760000       1.49640000       0.10040000
C       -0.01840000      -0.02870000      -0.05690000
N       -1.34100000      -0.61810000      -0.04300000
C       -2.04190000      -0.97330000       1.08880000
C       -3.31890000      -1.33110000       0.71400000
N       -4.37560000      -1.86250000       1.49170000
C       -3.40310000      -1.17720000      -0.70130000
N       -4.58750000      -1.42280000      -1.43110000
C       -2.17580000      -0.72670000      -1.13640000
H        1.00690000       1.88280000       0.07830000
H       -0.58200000       1.96950000      -0.70840000
H       -0.47610000       1.78880000       1.04950000
H        0.46690000      -0.30910000      -0.99850000
H        0.56420000      -0.49020000       0.74790000
H       -1.57230000      -0.95500000       2.06000000
H       -5.23070000      -1.33290000       1.34990000
H       -4.15940000      -1.84660000       2.48120000
H       -5.01160000      -2.29700000      -1.13490000
H       -4.41610000      -1.47540000      -2.42790000
H       -1.82420000      -0.48410000      -2.12700000
