14
Properties=species:S:1:pos:R:3 gdb_5212=T pbc="F F F"
C       -0.04200000       1.46440000       0.02520000
C        0.00320000       0.01090000       0.02030000
C        0.03280000      -1.19470000       0.01820000
C        0.06920000      -2.61020000       0.01530000
C        1.15800000      -3.41820000      -0.23500000
N        0.69450000      -4.70520000      -0.12200000
C       -0.63360000      -4.63210000       0.18680000
N       -1.04680000      -3.39370000       0.27810000
H        0.66490000       1.88570000       0.74920000
H        0.20670000       1.87750000      -0.95920000
H       -1.04190000       1.82440000       0.29160000
H        2.18270000      -3.19110000      -0.47430000
H        1.23710000      -5.54350000      -0.24500000
H       -1.23980000      -5.51400000       0.33130000
