14
Properties=species:S:1:pos:R:3 gdb_129221=T pbc="F F F"
N       -0.03310000       0.79840000       1.35910000
C       -0.00310000       0.09410000       0.29190000
N        1.21810000      -0.25070000      -0.33060000
N        1.64380000      -1.02300000      -1.36740000
N        0.93440000      -1.60680000      -2.21040000
C       -0.49350000      -1.62100000      -2.33080000
N       -0.96680000      -2.19840000      -3.37040000
C       -1.46820000      -1.07030000      -1.38450000
C       -1.26840000      -0.35050000      -0.27800000
H        0.90000000       1.06460000       1.68050000
H        2.03490000       0.08680000       0.15950000
H       -0.18280000      -2.54290000      -3.93270000
H       -2.48680000      -1.30310000      -1.67710000
H       -2.11800000      -0.01680000       0.30590000
