15
Properties=species:S:1:pos:R:3 gdb_8255=T pbc="F F F"
N        0.12050000       1.21980000       0.68590000
C        0.01880000       0.10620000       0.12440000
C       -1.11660000      -0.86160000      -0.13800000
C       -0.02050000      -1.71820000      -0.80750000
C       -0.12020000      -1.96300000      -2.30660000
C        1.17550000      -2.49710000      -2.89000000
O        1.25850000      -3.50620000      -3.54060000
O        0.97540000      -0.68510000      -0.48870000
H        1.08180000       1.56400000       0.66690000
H       -1.57700000      -1.28230000       0.75690000
H       -1.89340000      -0.48400000      -0.80560000
H        0.22760000      -2.63820000      -0.27000000
H       -0.92350000      -2.67340000      -2.52410000
H       -0.34950000      -1.00900000      -2.80140000
H        2.06880000      -1.87400000      -2.66890000
