20
Properties=species:S:1:pos:R:3 gdb_104824=T pbc="F F F"
C       -0.01220000       1.57160000       0.17120000
C       -0.21500000       0.08010000      -0.11590000
C        0.66410000      -0.45330000      -1.25660000
C        0.30360000       0.14510000      -2.62090000
O        1.08560000      -0.39690000      -3.67720000
N        2.13220000      -0.41450000      -0.93340000
C        2.27090000      -1.89810000      -1.01690000
C        0.77090000      -1.99370000      -1.30720000
O        0.00070000      -2.87600000      -1.55310000
H        1.04790000       1.78060000       0.34240000
H       -0.35820000       2.20370000      -0.65260000
H       -0.56660000       1.86910000       1.06610000
H        0.02250000      -0.49060000       0.78900000
H       -1.26450000      -0.13390000      -0.35270000
H       -0.77200000       0.01360000      -2.80300000
H        0.51140000       1.22020000      -2.61750000
H        0.73200000      -1.26660000      -3.89210000
H        2.65020000       0.03160000      -1.68360000
H        2.88840000      -2.27310000      -1.84220000
H        2.60600000      -2.36780000      -0.08530000
