10
Properties=species:S:1:pos:R:3 gdb_5356=T pbc="F F F"
N        0.01750000      -1.13310000      -0.00340000
C        0.00170000       0.02190000       0.00290000
C       -0.01790000       1.46840000       0.01080000
N       -1.21660000       2.05510000       0.03010000
C       -1.16410000       3.38730000       0.03630000
N       -0.05400000       4.12610000       0.02500000
C        1.07580000       3.41790000       0.00600000
N        1.16440000       2.08760000      -0.00210000
H       -2.11410000       3.91540000       0.05180000
H        2.01110000       3.97170000      -0.00390000
