15
Properties=species:S:1:pos:R:3 gdb_16474=T pbc="F F F"
C       -0.00050000       1.52250000       0.05310000
C       -0.04480000       0.03100000       0.00140000
C        0.08440000      -1.02190000       1.08460000
C       -0.43130000      -2.10280000       0.05670000
C        1.00460000      -2.08480000      -0.48630000
N        1.22610000      -0.75230000       0.19450000
C       -1.04250000      -0.88010000      -0.66210000
O       -2.04830000      -0.69030000      -1.28560000
H        0.67380000       1.86170000       0.84340000
H        0.36050000       1.93000000      -0.89640000
H       -0.99950000       1.92800000       0.23850000
H        0.06000000      -0.91460000       2.16030000
H       -1.01850000      -2.99860000       0.23820000
H        1.67010000      -2.81360000      -0.01820000
H        1.14720000      -2.08560000      -1.57280000
