23
Properties=species:S:1:pos:R:3 gdb_39399=T pbc="F F F"
C       -0.09350000       1.51460000       0.01870000
C        1.46770000       1.49080000      -0.05540000
C        2.18160000       1.70270000       1.29130000
C        1.35530000       1.31310000       2.53390000
C        0.70400000      -0.09700000       2.55600000
C        0.48610000      -0.81350000       1.21620000
C        1.79810000      -1.09100000       0.41460000
C        1.38350000       0.00420000      -0.57580000
C       -0.08000000      -0.02230000      -0.03020000
H       -0.57530000       2.02080000       0.85910000
H       -0.52260000       1.91540000      -0.90530000
H        1.89430000       2.17300000      -0.79530000
H        3.14220000       1.17300000       1.27980000
H        2.43310000       2.76560000       1.39210000
H        1.98980000       1.42190000       3.42070000
H        0.56800000       2.06390000       2.65420000
H        1.32370000      -0.77090000       3.16160000
H       -0.25330000      -0.02460000       3.08680000
H       -0.09130000      -1.72060000       1.41790000
H        2.74670000      -0.98440000       0.95030000
H        1.78440000      -2.07850000      -0.05690000
H        1.62190000      -0.11340000      -1.63490000
H       -0.89490000      -0.53700000      -0.54360000
