20
Properties=species:S:1:pos:R:3 gdb_87501=T pbc="F F F"
C       -0.15190000       1.46190000      -0.03340000
N        0.04770000       0.01930000       0.04080000
C        1.42660000      -0.45850000      -0.19520000
C        0.79450000      -0.50610000       1.14590000
C        1.16090000       0.09380000       2.52560000
C       -0.20700000      -0.48020000       3.01140000
C        0.39620000      -1.62030000       2.13540000
C        1.74740000      -1.31840000       2.86640000
O        2.96990000      -1.74320000       2.34580000
H        0.69060000       2.04520000       0.37200000
H       -0.29820000       1.75060000      -1.07880000
H       -1.05490000       1.73240000       0.52290000
H        1.51380000      -1.34370000      -0.82150000
H        2.19320000       0.29770000      -0.36850000
H        1.59590000       1.06720000       2.75240000
H       -0.29330000      -0.68420000       4.08220000
H       -1.10230000       0.00100000       2.61760000
H       -0.04440000      -2.59030000       1.90620000
H        1.75800000      -1.56160000       3.93130000
H        2.98450000      -1.53630000       1.40510000
