16
Properties=species:S:1:pos:R:3 gdb_125911=T pbc="F F F"
C       -0.30830000       1.62410000      -0.15880000
C        0.00310000       0.14870000      -0.00730000
C        0.70270000      -0.59740000      -1.21960000
C        1.86930000      -0.81480000      -0.26540000
C        3.06190000      -1.20890000       0.30540000
O        4.09270000      -1.89800000      -0.22000000
N        3.06570000      -0.76760000       1.59250000
N        1.94080000      -0.12180000       1.87680000
N        1.25410000      -0.16700000       0.74010000
H        0.54900000       2.16460000      -0.57020000
H       -1.16120000       1.75650000      -0.83170000
H       -0.56460000       2.06700000       0.80780000
H       -0.84680000      -0.40270000       0.40370000
H        0.18810000      -1.49950000      -1.55690000
H        0.90550000       0.04830000      -2.07730000
H        4.74940000      -1.98500000       0.48300000
