14
Properties=species:S:1:pos:R:3 gdb_129717=T pbc="F F F"
N       -0.01330000       1.39220000       0.13010000
C       -0.05770000       0.03030000       0.04940000
C       -1.20310000      -0.72550000       0.03150000
O       -2.40460000      -0.07270000       0.04570000
C       -1.10240000      -2.14060000      -0.00070000
N        0.02620000      -2.79630000      -0.02310000
N        1.13220000      -2.03080000      -0.01880000
C        1.22940000      -0.65050000       0.00570000
O        2.30880000      -0.06740000      -0.01670000
H        0.89150000       1.78350000      -0.09150000
H       -0.82760000       1.90870000      -0.15810000
H       -3.12210000      -0.71310000       0.00780000
H       -2.00060000      -2.75320000      -0.00640000
H        2.00550000      -2.53880000      -0.04910000
