19
Properties=species:S:1:pos:R:3 gdb_80575=T pbc="F F F"
C        0.25590000       1.49880000       0.00200000
C        0.10670000      -0.00260000       0.03200000
O        0.63530000      -0.58360000      -1.14940000
C        1.06600000      -1.87300000      -0.78780000
C        2.42860000      -1.95110000      -0.09850000
O        3.30210000      -0.87850000      -0.08530000
C        1.15340000      -1.90460000       0.71960000
C        0.66390000      -2.97560000       1.64920000
O        0.85860000      -0.56690000       1.10940000
H       -0.09900000       1.93000000       0.94120000
H        1.30470000       1.76640000      -0.14910000
H       -0.33350000       1.91120000      -0.82060000
H       -0.94930000      -0.30400000       0.14800000
H        0.67630000      -2.68540000      -1.39350000
H        2.94260000      -2.90690000      -0.16610000
H        2.87930000      -0.19760000       0.45610000
H        0.92490000      -3.96420000       1.25960000
H        1.12160000      -2.87060000       2.63840000
H       -0.42410000      -2.92950000       1.76660000
