22
Properties=species:S:1:pos:R:3 gdb_6566=T pbc="F F F"
C       -0.16390000       1.58110000      -0.01130000
C        0.01920000       0.07030000       0.01440000
C        1.18480000      -0.63960000      -0.75850000
C        1.42830000      -0.63980000      -2.24470000
C        2.15420000      -0.15110000       0.36190000
C        0.87950000      -0.64470000       1.11370000
C        0.63830000      -0.65310000       2.60030000
C        0.90820000      -1.87270000       0.15400000
H        0.76460000       2.13730000       0.14180000
H       -0.58360000       1.90070000      -0.97210000
H       -0.86760000       1.89580000       0.76790000
H       -0.95300000      -0.41520000      -0.14550000
H        1.58300000       0.37750000      -2.62180000
H        2.31710000      -1.22770000      -2.49950000
H        0.57670000      -1.07020000      -2.78390000
H        3.05870000      -0.75060000       0.50770000
H        2.39260000       0.91380000       0.40370000
H        0.66430000       0.36210000       3.01240000
H       -0.34010000      -1.08560000       2.83870000
H        1.40070000      -1.24310000       3.12110000
H       -0.04060000      -2.39680000      -0.00210000
H        1.73600000      -2.57640000       0.28710000
