17
Properties=species:S:1:pos:R:3 gdb_62528=T pbc="F F F"
C       -0.10200000       1.46650000      -0.06450000
C       -0.01760000      -0.05480000       0.05450000
C       -1.38330000      -0.69480000       0.29460000
C        0.89530000      -0.73210000      -1.03100000
O        1.83430000      -1.14410000       0.00460000
C        1.07280000      -0.54330000       0.99740000
N        1.26480000      -0.45370000       2.22840000
C        0.35950000      -1.86530000      -1.77610000
N       -0.08310000      -2.74520000      -2.38010000
H        0.88070000       1.91420000      -0.24080000
H       -0.76700000       1.75320000      -0.88550000
H       -0.49980000       1.88710000       0.86290000
H       -2.07670000      -0.44280000      -0.51380000
H       -1.31820000      -1.78350000       0.36200000
H       -1.79670000      -0.32050000       1.23490000
H        1.37110000      -0.03070000      -1.72220000
H        2.12850000      -0.91140000       2.52260000
