17
Properties=species:S:1:pos:R:3 gdb_91082=T pbc="F F F"
C        0.15270000       1.48520000       0.20450000
C        0.00180000      -0.01220000       0.04930000
O        1.00810000      -0.60260000      -0.84950000
C        1.24640000      -1.71540000       0.06760000
C        2.59520000      -2.04400000       0.69650000
O        3.35310000      -0.96110000       1.21460000
C        2.47390000      -1.65610000       2.13010000
C        1.20370000      -0.86770000       2.28840000
C        0.54590000      -0.92480000       1.12930000
H        1.16140000       1.72640000       0.54800000
H       -0.02570000       1.98540000      -0.75210000
H       -0.57520000       1.86560000       0.92910000
H       -1.00280000      -0.27820000      -0.30770000
H        0.76690000      -2.62960000      -0.30640000
H        3.17100000      -2.90620000       0.37240000
H        2.97620000      -2.18260000       2.93560000
H        1.03730000      -0.18120000       3.10940000
