13
Properties=species:S:1:pos:R:3 gdb_27603=T pbc="F F F"
O        0.08250000       1.34460000      -0.06910000
C        0.06740000       0.00080000      -0.04480000
C        0.03980000      -0.68700000      -1.26280000
C        0.02460000      -2.07710000      -1.21030000
C        0.03730000      -2.72510000       0.03500000
C        0.06480000      -1.93200000       1.17100000
N        0.07980000      -0.59460000       1.14290000
C       -0.00380000      -2.84190000      -2.42140000
N       -0.02670000      -3.46390000      -3.39660000
H        0.10080000       1.63370000       0.85430000
H        0.03080000      -0.14780000      -2.20050000
H        0.02600000      -3.80460000       0.10210000
H        0.07560000      -2.38730000       2.15730000
