17
Properties=species:S:1:pos:R:3 gdb_128781=T pbc="F F F"
C        0.32100000       1.38770000      -0.05720000
O        0.58310000       0.00280000      -0.07050000
C        0.17740000      -0.63710000       1.11260000
C        0.50840000      -2.08800000       0.99950000
C        1.11690000      -2.81750000       0.03300000
C        1.11740000      -4.14000000       0.57570000
N        1.69240000      -5.26750000       0.01390000
N        0.54650000      -4.19020000       1.76020000
O        0.16400000      -2.86350000       2.03610000
H        0.85410000       1.89490000       0.76190000
H        0.66870000       1.79150000      -1.01040000
H       -0.75460000       1.59740000       0.04910000
H        0.68440000      -0.20820000       1.99470000
H       -0.90640000      -0.51490000       1.28430000
H        1.51330000      -2.46910000      -0.90470000
H        1.59930000      -5.32240000      -0.99010000
H        1.39690000      -6.12350000       0.46440000
