22
Properties=species:S:1:pos:R:3 gdb_96500=T pbc="F F F"
C       -0.21960000       1.50780000       0.09660000
C        0.00240000      -0.00790000       0.04910000
C        0.68690000      -0.42860000      -1.27840000
C        0.42460000      -1.87630000      -1.70950000
C        0.90010000      -2.94250000      -0.71740000
C        0.29940000      -2.81170000       0.68130000
O        0.93360000      -1.81470000       1.48720000
C        0.80240000      -0.47570000       1.25240000
N        1.36890000       0.35400000       2.02620000
H        0.73060000       2.04140000       0.01780000
H       -0.86560000       1.81380000      -0.73260000
H       -0.68370000       1.81060000       1.03710000
H       -0.98230000      -0.49550000       0.08640000
H        0.32090000       0.23610000      -2.06870000
H        1.76540000      -0.24260000      -1.19740000
H       -0.65510000      -2.00410000      -1.87160000
H        0.90010000      -2.05310000      -2.68120000
H        0.63870000      -3.93500000      -1.10470000
H        1.99260000      -2.92150000      -0.61860000
H       -0.78380000      -2.63830000       0.63260000
H        0.45680000      -3.73510000       1.24470000
H        1.87130000      -0.14760000       2.76170000
