21
Properties=species:S:1:pos:R:3 gdb_121098=T pbc="F F F"
C        0.72120000       1.34790000      -0.27280000
O        0.84410000      -0.05360000      -0.28040000
C       -0.22690000      -0.69800000      -0.93320000
C        0.02130000      -2.20650000      -0.85730000
O       -1.10690000      -2.88590000      -1.41370000
C       -0.68270000      -3.77890000      -2.43770000
C        0.80640000      -3.57570000      -2.57010000
C        1.62070000      -4.31300000      -3.58270000
C        1.19580000      -2.68410000      -1.66250000
H        0.70310000       1.76260000      -1.29330000
H       -0.19490000       1.67420000       0.24440000
H        1.58810000       1.75110000       0.25670000
H       -1.18810000      -0.46180000      -0.44830000
H       -0.29700000      -0.38690000      -1.98850000
H        0.12580000      -2.47130000       0.20790000
H       -0.93320000      -4.81770000      -2.16390000
H       -1.22120000      -3.55680000      -3.37300000
H        1.54070000      -5.39840000      -3.44200000
H        1.27100000      -4.10430000      -4.60180000
H        2.67710000      -4.04000000      -3.52340000
H        2.20150000      -2.32230000      -1.49380000
