12
Properties=species:S:1:pos:R:3 gdb_48380=T pbc="F F F"
O       -0.48010000       0.60160000       0.85580000
C        0.22710000       0.90070000      -0.06310000
C        1.32310000       1.94700000       0.02880000
O        2.40620000       1.70370000      -0.89310000
C        1.56860000       2.80480000      -1.17950000
C        0.73850000       2.72540000      -2.36380000
N        0.07880000       2.69650000      -3.31210000
C        1.65870000       2.45660000       1.32710000
C        1.93190000       2.87750000       2.41750000
H        0.16050000       0.43360000      -1.06620000
H        2.00080000       3.78610000      -0.99410000
H        2.16990000       3.24300000       3.38690000
