18
Properties=species:S:1:pos:R:3 gdb_116596=T pbc="F F F"
C        0.00210000       1.52580000      -0.12780000
C       -0.06450000       0.01380000       0.11650000
N       -1.42340000      -0.48250000       0.01420000
C       -1.80720000      -1.10620000      -1.01800000
N       -3.09820000      -1.57860000      -1.20740000
C       -3.18370000      -2.47140000      -2.34640000
C       -1.83190000      -2.26890000      -3.03950000
O       -1.47000000      -2.70950000      -4.10100000
N       -1.10340000      -1.47290000      -2.18130000
H        1.01720000       1.90240000       0.03530000
H       -0.29550000       1.77160000      -1.15260000
H       -0.67730000       2.04800000       0.55150000
H        0.64470000      -0.49830000      -0.55750000
H        0.29070000      -0.19630000       1.13280000
H       -3.64310000      -1.73130000      -0.37470000
H       -3.28980000      -3.53100000      -2.07520000
H       -3.99740000      -2.21570000      -3.03340000
H       -0.16550000      -1.17530000      -2.39100000
