18
Properties=species:S:1:pos:R:3 gdb_95126=T pbc="F F F"
C        0.12990000       1.59960000      -0.30070000
C        0.03780000       0.10180000      -0.05410000
O        0.70950000      -0.56900000      -1.12420000
C        1.27960000      -1.78590000      -0.66770000
C        1.52630000      -1.60050000       0.81620000
N        2.18910000      -0.34780000       1.15010000
C        0.71660000      -0.39850000       1.21200000
C        0.06550000      -0.38590000       2.54010000
O        0.67360000      -0.51320000       3.57890000
H        1.17320000       1.91880000      -0.24920000
H       -0.26550000       1.84020000      -1.29080000
H       -0.45170000       2.15110000       0.44510000
H       -1.02120000      -0.21110000      -0.01610000
H        0.59930000      -2.63930000      -0.81960000
H        2.19580000      -1.96090000      -1.24110000
H        1.61650000      -2.45690000       1.47700000
H        2.52130000      -0.39900000       2.11470000
H       -1.03780000      -0.25640000       2.52930000
