16
Properties=species:S:1:pos:R:3 gdb_15242=T pbc="F F F"
C       -0.37490000       1.14310000       0.17850000
O        0.56770000       0.11110000      -0.08090000
C        0.98240000      -0.53040000       1.07130000
C        0.09610000      -1.60010000       1.65630000
O       -1.13780000      -1.87010000       1.08340000
C        1.38300000      -1.99690000       0.91800000
C        1.23080000      -2.64300000      -0.34840000
C        1.03250000      -3.21060000      -1.39170000
H        0.05550000       1.92320000       0.82370000
H       -0.62920000       1.58500000      -0.78740000
H       -1.27940000       0.74340000       0.65050000
H        1.58930000       0.07190000       1.75120000
H        0.07920000      -1.73940000       2.73310000
H       -0.98660000      -2.19450000       0.18500000
H        2.21720000      -2.33470000       1.52500000
H        0.89940000      -3.69510000      -2.32720000
