18
Properties=species:S:1:pos:R:3 gdb_86469=T pbc="F F F"
C        0.11950000       1.60040000       0.03470000
C        0.09690000       0.08110000       0.01950000
C        1.09700000      -0.66700000      -0.90130000
C        1.30420000      -1.74180000       0.23590000
C        0.69130000      -0.68220000       1.23260000
C        0.45770000      -2.91530000       0.06660000
C       -0.26590000      -3.86310000      -0.07770000
C        2.69050000      -2.12600000       0.49670000
N        3.79750000      -2.38520000       0.70530000
H        1.12960000       1.97790000       0.22940000
H       -0.21210000       2.01040000      -0.92540000
H       -0.54230000       1.99790000       0.81170000
H       -0.91800000      -0.27900000      -0.17600000
H        0.74310000      -1.05370000      -1.85720000
H        2.01760000      -0.09800000      -1.05280000
H        1.49070000      -0.11780000       1.71920000
H        0.01240000      -1.08130000       1.98650000
H       -0.89380000      -4.71070000      -0.20300000
