19
Properties=species:S:1:pos:R:3 gdb_104372=T pbc="F F F"
C       -0.04840000       1.53630000       0.09890000
C       -0.07010000       0.01510000      -0.06250000
C        0.81050000      -0.51040000      -1.22050000
O        2.15740000      -0.13220000      -1.06040000
C        0.62740000      -2.02560000      -1.40520000
O       -0.59850000      -2.15600000      -2.13560000
C       -0.63530000      -1.12900000      -3.11060000
C        0.27530000      -0.03100000      -2.57650000
O        0.62110000       0.98410000      -3.12630000
H        0.97230000       1.88890000       0.27160000
H       -0.43570000       2.04860000      -0.78700000
H       -0.65750000       1.83850000       0.95550000
H        0.31000000      -0.45850000       0.85090000
H       -1.09380000      -0.35020000      -0.20430000
H        2.28810000       0.65370000      -1.61030000
H        1.48030000      -2.43620000      -1.96590000
H        0.51040000      -2.57780000      -0.47070000
H       -0.24730000      -1.46500000      -4.08590000
H       -1.66610000      -0.78900000      -3.25350000
