17
Properties=species:S:1:pos:R:3 gdb_49513=T pbc="F F F"
O       -0.64700000       0.80650000       0.62720000
C        0.16940000       0.99810000      -0.24070000
C        1.36160000       1.90300000      -0.14610000
C        1.18690000       3.29800000      -0.84500000
C        0.43950000       3.73860000       0.46100000
C        1.49270000       2.78000000       1.12640000
C        2.77820000       3.58550000       0.82670000
O        3.62760000       3.05690000      -0.20850000
C        2.56610000       3.94960000      -0.57450000
H        0.09100000       0.47010000      -1.21970000
H        2.24890000       1.34930000      -0.46500000
H        0.75380000       3.39950000      -1.83990000
H        0.48820000       4.79860000       0.72590000
H       -0.58380000       3.37090000       0.53620000
H        1.35100000       2.36330000       2.12120000
H        3.26290000       4.20320000       1.57430000
H        2.86030000       4.88200000      -1.04380000
