17
Properties=species:S:1:pos:R:3 gdb_68145=T pbc="F F F"
O       -0.05610000       1.40110000      -0.05360000
C       -0.01320000       0.01690000       0.01900000
C        0.33990000      -0.79660000       1.31090000
C       -0.38600000      -1.90430000       0.49400000
C       -1.33810000      -0.78540000      -0.02650000
O        0.51050000      -2.11360000      -0.62960000
C        0.80980000      -0.76310000      -1.02410000
C       -0.84470000      -3.14340000       1.05990000
C       -1.24610000      -4.16150000       1.55570000
H        0.84500000       1.74110000      -0.02070000
H        1.38860000      -0.98070000       1.55480000
H       -0.22750000      -0.46560000       2.18100000
H       -2.05580000      -0.45530000       0.72480000
H       -1.81420000      -0.95480000      -0.99400000
H        0.47830000      -0.57470000      -2.05180000
H        1.88930000      -0.57440000      -0.95200000
H       -1.59660000      -5.06550000       1.98910000
