18
Properties=species:S:1:pos:R:3 gdb_13240=T pbc="F F F"
N       -0.19910000      -1.09440000      -0.21570000
C       -0.11920000       0.04520000      -0.04610000
C       -0.00680000       1.48610000       0.19830000
N        1.24790000       2.01290000      -0.32760000
C        1.41070000       3.43480000      -0.10940000
C        1.65620000       4.04640000       1.31210000
C        2.66220000       5.02580000       0.64890000
C        2.74690000       4.06360000      -0.56730000
H       -0.83840000       1.98780000      -0.31270000
H       -0.15710000       1.65670000       1.27940000
H        2.02810000       1.50500000       0.07860000
H        0.56620000       3.94460000      -0.58950000
H        0.80660000       4.46830000       1.85470000
H        2.16730000       3.32670000       1.96140000
H        2.18830000       5.97440000       0.38260000
H        3.58690000       5.24040000       1.18740000
H        3.56920000       3.34870000      -0.45380000
H        2.79250000       4.48670000      -1.57270000
