19
Properties=species:S:1:pos:R:3 gdb_19687=T pbc="F F F"
C        0.00960000       1.57720000      -0.02580000
C        0.12000000       0.04890000      -0.00270000
C        0.67610000      -0.53770000      -1.29920000
C        0.63850000      -2.06770000      -1.33360000
C       -0.67750000      -2.08670000      -2.01300000
C       -0.34090000      -0.61570000      -2.47900000
C        0.48600000      -1.29820000      -3.57890000
N        0.52730000      -2.55390000      -2.75560000
H        0.98790000       2.04180000      -0.19150000
H       -0.65790000       1.92050000      -0.82320000
H       -0.38290000       1.95880000       0.92180000
H        0.76820000      -0.25320000       0.83060000
H       -0.86310000      -0.39490000       0.20130000
H        1.63610000      -0.06230000      -1.54370000
H        1.05590000      -2.77080000      -0.62360000
H       -1.58020000      -2.66910000      -1.88640000
H       -1.03370000       0.20030000      -2.67830000
H       -0.07880000      -1.50760000      -4.49100000
H        1.46280000      -0.87000000      -3.83570000
