17
Properties=species:S:1:pos:R:3 gdb_80774=T pbc="F F F"
O        0.01030000       1.42880000       0.16800000
C       -0.08650000       0.03950000       0.08000000
C       -0.43560000      -0.81280000       1.25960000
C       -1.45760000      -0.06620000       2.12520000
C       -2.42780000      -0.05840000       0.90780000
O       -2.86190000       1.23220000       0.43970000
C       -4.17350000       1.53840000       0.48420000
O       -4.60430000       2.59260000       0.12840000
C       -1.38240000      -0.71580000       0.02640000
H       -0.83290000       1.81360000      -0.09590000
H        0.68030000      -0.38950000      -0.56260000
H        0.16360000      -1.65520000       1.57980000
H       -1.84840000      -0.63830000       2.96780000
H       -1.13410000       0.92070000       2.46200000
H       -3.30460000      -0.69190000       1.07240000
H       -4.79030000       0.70730000       0.87840000
H       -1.60120000      -1.43510000      -0.75390000
