21
Properties=species:S:1:pos:R:3 gdb_78110=T pbc="F F F"
C        0.00220000       1.56870000       0.03660000
C       -0.00360000       0.06780000       0.02500000
C       -1.26560000      -0.80220000      -0.05170000
C       -0.63960000      -1.77490000       1.00760000
C       -1.38010000      -1.80000000       2.33700000
O       -0.37650000      -3.11570000       0.56340000
C        0.64060000      -0.94500000       1.02000000
C        1.17300000      -0.77770000      -0.37310000
O        1.13000000      -1.77010000      -1.35330000
H        1.00470000       1.95820000       0.24260000
H       -0.31520000       1.96960000      -0.93370000
H       -0.67550000       1.97240000       0.79850000
H       -2.16870000      -0.30710000       0.31450000
H       -1.46110000      -1.24280000      -1.03360000
H       -2.36470000      -2.27110000       2.22490000
H       -0.80910000      -2.36700000       3.07870000
H       -1.53640000      -0.78660000       2.71800000
H       -1.21950000      -3.57170000       0.45950000
H        1.24490000      -0.77630000       1.90570000
H        2.10820000      -0.22130000      -0.41430000
H        0.73370000      -2.55240000      -0.94300000
