14
Properties=species:S:1:pos:R:3 gdb_128641=T pbc="F F F"
C        0.00100000       1.39540000      -0.00640000
O        0.06640000      -0.03170000      -0.02330000
C        0.63180000      -0.60300000      -1.08930000
N        0.66090000      -1.94940000      -1.04090000
C        1.21230000      -2.53330000      -2.07790000
C        1.72210000      -1.75870000      -3.13980000
O        2.28600000      -2.36700000      -4.19950000
N        1.65960000      -0.44380000      -3.12000000
N        1.09950000       0.16210000      -2.06750000
H        1.00170000       1.83460000      -0.04850000
H       -0.57950000       1.77170000      -0.85330000
H       -0.48800000       1.64940000       0.93440000
H        1.26690000      -3.61880000      -2.10010000
H        2.56630000      -1.66470000      -4.80490000
