13
Properties=species:S:1:pos:R:3 gdb_130194=T pbc="F F F"
N        0.04530000       1.35610000       0.17870000
C        0.01450000      -0.00690000       0.03590000
N       -1.05440000      -0.76330000      -0.04230000
N       -0.57770000      -2.07000000      -0.08270000
C        0.76990000      -2.09000000      -0.04850000
N        1.82130000      -2.89360000      -0.07110000
C        2.83620000      -1.97620000      -0.00110000
N        2.51170000      -0.68550000       0.06320000
N        1.14630000      -0.78390000       0.03360000
H        0.86710000       1.79510000      -0.21270000
H       -0.81750000       1.80830000      -0.08710000
H       -1.22560000      -2.83220000      -0.15120000
H        3.87420000      -2.27730000       0.00200000
