16
Properties=species:S:1:pos:R:3 gdb_44491=T pbc="F F F"
O       -0.03250000       0.04880000      -0.25560000
C       -0.00410000       1.21250000       0.01270000
O       -1.14150000       1.96950000       0.20930000
C       -0.71480000       3.26960000       0.58200000
C        0.07130000       4.09790000      -0.51430000
C        0.95990000       4.60340000       0.64420000
C        0.70760000       3.18210000       1.19840000
C        1.15960000       2.19730000       0.09110000
N        0.96880000       3.08950000      -1.10690000
H       -1.49760000       3.77830000       1.13960000
H       -0.40770000       4.75180000      -1.24010000
H        1.97740000       4.89280000       0.38140000
H        0.47770000       5.36490000       1.26090000
H        0.88270000       2.88680000       2.23140000
H        2.14420000       1.73880000       0.14600000
H        0.51970000       2.58330000      -1.86570000
