19
Properties=species:S:1:pos:R:3 gdb_89291=T pbc="F F F"
C       -0.30120000       1.45710000      -0.03630000
N        0.12660000       0.07260000       0.00730000
C        1.22930000      -0.40030000      -0.85230000
C        1.83990000      -1.16680000       0.36030000
C        2.11630000      -2.64560000       0.26070000
N        2.81760000      -0.36000000       1.10550000
C        1.87850000       0.35830000       1.82940000
O        1.97320000       1.31740000       2.54840000
C        0.72410000      -0.49190000       1.22950000
H        0.50730000       2.18190000       0.15680000
H       -0.72970000       1.67040000      -1.02120000
H       -1.08230000       1.61870000       0.71330000
H        0.88120000      -1.01950000      -1.68740000
H        1.89480000       0.38260000      -1.24420000
H        2.96640000      -2.84110000      -0.40380000
H        2.35220000      -3.06480000       1.24300000
H        1.24890000      -3.17280000      -0.14720000
H        3.73340000      -0.04780000       0.80440000
H        0.03850000      -0.99790000       1.91250000
