18
Properties=species:S:1:pos:R:3 gdb_10882=T pbc="F F F"
C       -0.17420000       1.55080000      -0.00590000
C        0.03140000       0.04370000       0.02370000
C        1.19610000      -0.66110000      -0.75180000
C        2.17720000      -0.14380000       0.34390000
C        0.93620000      -0.65110000       1.11060000
O        0.79860000      -0.61360000       2.48430000
C        0.99610000      -1.90140000       0.17100000
O       -0.09340000      -2.77520000       0.04220000
H        0.75360000       2.12090000       0.07810000
H       -0.66510000       1.85450000      -0.93700000
H       -0.82330000       1.85690000       0.82190000
H       -0.94890000      -0.43410000      -0.10550000
H        1.36210000      -0.66330000      -1.82710000
H        3.09830000      -0.71670000       0.48140000
H        2.37420000       0.92590000       0.36450000
H        0.11740000      -1.24990000       2.73020000
H        1.87800000      -2.53320000       0.30470000
H       -0.84830000      -2.29530000      -0.31210000
