18
Properties=species:S:1:pos:R:3 gdb_80372=T pbc="F F F"
C       -0.03250000       1.54950000      -0.12200000
C        0.06990000       0.04930000       0.04190000
C        1.33040000      -0.73570000      -0.11390000
O        2.46890000      -0.01020000       0.38040000
C        1.94890000      -0.09090000       1.73840000
C        2.79510000      -1.04330000       2.57880000
C        1.87760000       1.22710000       2.39320000
N        1.82780000       2.24000000       2.94740000
C        0.63750000      -0.70780000       1.23410000
H        0.91900000       2.04160000       0.08440000
H       -0.31630000       1.79040000      -1.15160000
H       -0.78840000       1.97370000       0.54540000
H       -0.78320000      -0.50280000      -0.35170000
H        1.52360000      -1.52870000      -0.82640000
H        3.81210000      -0.65570000       2.67480000
H        2.36610000      -1.15490000       3.57930000
H        2.82920000      -2.02080000       2.09210000
H        0.09350000      -1.47230000       1.77260000
