15
Properties=species:S:1:pos:R:3 gdb_68731=T pbc="F F F"
N        1.16070000       1.37250000       0.34570000
C        0.42500000       0.32300000      -0.21130000
C       -0.84440000      -0.01810000       0.52710000
C       -1.61410000      -1.07750000      -0.23100000
C       -2.85350000      -1.53040000       0.29390000
N       -3.85910000      -1.87640000       0.75670000
C       -1.16360000      -1.59170000      -1.39120000
O       -0.01710000      -1.24500000      -1.98510000
C        0.76420000      -0.28800000      -1.35020000
H        1.20870000       1.33830000       1.35690000
H        2.08580000       1.49070000      -0.04690000
H       -0.60580000      -0.36400000       1.54590000
H       -1.44920000       0.89050000       0.66000000
H       -1.70210000      -2.34450000      -1.95340000
H        1.66160000      -0.08730000      -1.91870000
