18
Properties=species:S:1:pos:R:3 gdb_65050=T pbc="F F F"
C        0.26700000       0.64390000      -1.40980000
C        0.00780000      -0.04110000      -0.08310000
C        1.14480000      -0.60760000       0.68580000
N        0.45410000       0.61030000       1.15670000
C       -1.36540000      -0.67660000       0.04810000
C       -1.96400000      -0.91900000       1.39370000
N       -2.49610000       0.14670000       0.53950000
C       -1.70430000      -1.58710000      -1.02770000
N       -1.93120000      -2.32680000      -1.88670000
H        1.27810000       1.06150000      -1.43850000
H        0.16620000      -0.05910000      -2.24180000
H       -0.44720000       1.45830000      -1.57520000
H        0.99610000      -1.48360000       1.30990000
H        2.14240000      -0.50850000       0.26670000
H        1.00380000       1.43590000       0.93380000
H       -2.62310000      -1.77070000       1.52710000
H       -1.35370000      -0.63760000       2.24550000
H       -2.10040000       1.03260000       0.85390000
