17
Properties=species:S:1:pos:R:3 gdb_125541=T pbc="F F F"
C       -0.02020000       1.43180000      -0.09170000
C        0.00460000      -0.05850000       0.04600000
N       -0.03090000      -0.83600000      -1.04670000
N        0.00680000      -2.08190000      -0.55290000
C       -0.00250000      -3.38910000      -1.17660000
C        0.06080000      -4.28340000       0.04630000
C        0.09850000      -3.54540000       1.17080000
C        0.06450000      -2.13700000       0.80500000
C        0.06520000      -0.82480000       1.24120000
H        0.88230000       1.88960000       0.32850000
H       -0.08400000       1.70550000      -1.14700000
H       -0.87820000       1.86940000       0.43060000
H       -0.91230000      -3.54660000      -1.76880000
H        0.85790000      -3.52350000      -1.84360000
H        0.07210000      -5.36180000      -0.02400000
H        0.14600000      -3.91830000       2.18410000
H        0.10270000      -0.46010000       2.25470000
