15
Properties=species:S:1:pos:R:3 gdb_10664=T pbc="F F F"
C        0.76080000       1.12030000       0.27030000
C       -0.27940000       0.09420000      -0.10150000
O       -1.29350000      -0.07920000       0.54040000
C       -0.03050000      -0.75610000      -1.33570000
C       -0.25480000      -2.23560000      -1.10280000
N       -1.22190000      -1.46670000      -1.85810000
C        0.94710000      -0.31700000      -2.29350000
C        1.78020000       0.05550000      -3.07620000
H        1.75100000       0.65770000       0.33410000
H        0.82590000       1.88050000      -0.51540000
H        0.49410000       1.58540000       1.21940000
H        0.34710000      -2.93100000      -1.67960000
H       -0.49540000      -2.53270000      -0.08570000
H       -1.98800000      -1.21120000      -1.23140000
H        2.50690000       0.38160000      -3.77870000
