19
Properties=species:S:1:pos:R:3 gdb_100851=T pbc="F F F"
C       -0.03510000       1.64970000       0.00020000
C       -0.01040000       0.12240000      -0.01590000
N       -1.35320000      -0.47050000      -0.08110000
C       -2.04960000      -0.20190000      -1.34000000
C       -1.37110000      -1.87900000       0.27240000
C       -2.79970000      -2.30360000       0.66220000
O       -3.29920000      -3.36150000       0.40900000
C       -0.77870000      -2.78370000      -0.73710000
N       -0.28270000      -3.41860000      -1.56530000
H        0.97410000       2.03040000       0.18250000
H       -0.37330000       2.07010000      -0.95080000
H       -0.69300000       2.01680000       0.79330000
H        0.62580000      -0.23420000      -0.84500000
H        0.45250000      -0.23290000       0.91170000
H       -1.51250000      -0.59210000      -2.22000000
H       -3.04300000      -0.66050000      -1.32000000
H       -2.18700000       0.87350000      -1.46250000
H       -0.78860000      -1.99580000       1.19900000
H       -3.31450000      -1.50530000       1.23800000
