20
Properties=species:S:1:pos:R:3 gdb_96513=T pbc="F F F"
C        1.45150000       0.86230000      -0.23340000
C        0.05960000       0.32810000       0.12400000
N       -0.53090000      -0.47310000      -0.95560000
C        0.21760000      -1.59890000      -1.50100000
C        0.59310000      -2.71370000      -0.51880000
O        1.46220000      -2.25200000       0.50370000
C        0.81970000      -1.72660000       1.63950000
C        0.05460000      -0.40060000       1.47690000
O       -0.56890000       0.02190000       2.42440000
H        2.20020000       0.06820000      -0.26160000
H        1.41550000       1.34970000      -1.21230000
H        1.76480000       1.60190000       0.50880000
H       -0.61030000       1.18140000       0.27530000
H       -1.47030000      -0.75630000      -0.69890000
H       -0.37970000      -2.03270000      -2.31250000
H        1.13750000      -1.21940000      -1.95870000
H       -0.31260000      -3.16000000      -0.07630000
H        1.13120000      -3.50760000      -1.05050000
H        0.11530000      -2.45220000       2.07610000
H        1.59990000      -1.55170000       2.38840000
