14
Properties=species:S:1:pos:R:3 gdb_10249=T pbc="F F F"
N       -0.29670000       1.30180000       0.03860000
C       -0.07540000      -0.03510000      -0.13390000
N        1.01990000      -0.63970000      -0.38890000
N       -1.23900000      -0.85690000       0.06980000
C       -2.56400000      -0.43730000      -0.02510000
N       -2.92360000       0.76170000      -0.25830000
C       -1.03230000      -2.22590000       0.36390000
O       -1.93150000      -3.01570000       0.50250000
H        0.43100000       1.90600000      -0.30810000
H       -1.25900000       1.61820000      -0.07630000
H        1.79140000       0.01920000      -0.46700000
H       -3.23410000      -1.28370000       0.12620000
H       -3.93770000       0.82950000      -0.28710000
H        0.03470000      -2.45510000       0.44840000
