20
Properties=species:S:1:pos:R:3 gdb_82575=T pbc="F F F"
C       -0.13840000       1.49400000      -0.08820000
N        0.06110000       0.06350000       0.08710000
C        1.31970000      -0.59780000      -0.16300000
C        2.54000000       0.23300000       0.28270000
C        1.94290000       0.29750000       1.71850000
C        2.76230000      -0.24120000       2.90920000
O        2.58910000       0.98300000       3.64800000
C        1.82430000       1.57300000       2.57830000
C        0.73120000      -0.51540000       1.22840000
H        0.72000000       2.12580000       0.18030000
H       -0.38020000       1.68560000      -1.13830000
H       -0.99420000       1.80610000       0.51810000
H        1.33970000      -1.42830000      -0.86050000
H        3.46840000      -0.34370000       0.25740000
H        2.70660000       1.18200000      -0.23690000
H        2.32590000      -1.10270000       3.43310000
H        3.81930000      -0.45230000       2.69810000
H        2.31440000       2.46570000       2.16550000
H        0.80980000       1.84120000       2.89980000
H        0.20490000      -1.26080000       1.81790000
