13
Properties=species:S:1:pos:R:3 gdb_5034=T pbc="F F F"
O        0.19580000       0.09530000       0.20180000
C        0.04250000       1.32880000       0.06900000
C       -1.16620000       2.03170000      -0.02420000
O       -1.24320000       3.37660000      -0.16790000
C       -0.15890000       4.12320000      -0.23040000
C        1.09960000       3.58440000      -0.15400000
C        1.23370000       2.19860000      -0.00490000
N        2.37340000       1.51360000       0.08530000
H        3.28730000       1.92700000       0.05530000
H        2.22800000       0.51170000       0.18930000
H       -2.14040000       1.56730000       0.01000000
H       -0.38000000       5.17550000      -0.34540000
H        1.96030000       4.24140000      -0.21040000
