18
Properties=species:S:1:pos:R:3 gdb_26501=T pbc="F F F"
C       -0.27910000       1.31190000      -0.80700000
C       -0.02770000       0.02660000      -0.04400000
C        1.10330000      -0.84110000      -0.49300000
N        1.20770000      -0.08720000       0.76440000
C       -1.22120000      -0.60100000       0.57820000
C       -2.53300000      -0.37890000       0.28530000
O       -3.34120000      -1.15310000       1.05940000
C       -2.52610000      -1.88230000       1.86700000
C       -1.22490000      -1.59080000       1.62270000
H        0.65040000       1.69690000      -1.23820000
H       -0.98330000       1.15210000      -1.63080000
H       -0.70010000       2.08070000      -0.15050000
H        1.03350000      -1.91880000      -0.37550000
H        1.68180000      -0.51470000      -1.35420000
H        1.78390000       0.74000000       0.62830000
H       -3.03890000       0.26570000      -0.41360000
H       -3.02310000      -2.54670000       2.55440000
H       -0.35750000      -1.98950000       2.12310000
