15
Properties=species:S:1:pos:R:3 gdb_105130=T pbc="F F F"
C        0.27100000       1.45420000       0.27490000
C       -0.29430000       0.11120000      -0.20170000
C        0.52120000      -0.48300000      -1.33290000
O        1.79530000      -1.03970000      -0.99400000
C        0.79510000      -1.94370000      -1.45610000
C        0.25330000      -2.87840000      -0.49380000
N       -0.18970000      -3.63960000       0.25410000
C        0.51220000       0.27040000      -2.57960000
N        0.47590000       0.88130000      -3.55960000
H        1.29920000       1.33790000       0.62870000
H        0.26640000       2.19700000      -0.52850000
H       -0.33160000       1.84410000       1.09870000
H       -0.30940000      -0.61210000       0.61830000
H       -1.32650000       0.22890000      -0.55040000
H        0.96880000      -2.36130000      -2.44570000
