16
Properties=species:S:1:pos:R:3 gdb_54344=T pbc="F F F"
N       -0.16080000       1.19360000       0.53710000
C        0.00340000      -0.04330000      -0.02840000
N        1.04860000      -0.59720000      -0.50020000
C       -1.32290000      -0.80550000      -0.14980000
C       -1.26280000      -2.31720000       0.18130000
C       -2.14910000      -1.94670000       1.38640000
O       -2.19560000      -0.55120000       0.97740000
C       -1.98120000      -0.45740000      -1.41660000
N       -2.51370000      -0.20000000      -2.40920000
H        0.66430000       1.70700000       0.80350000
H       -0.96640000       1.30810000       1.13460000
H        1.87340000      -0.00250000      -0.40350000
H       -1.73400000      -2.95940000      -0.56090000
H       -0.25430000      -2.66520000       0.39280000
H       -3.15080000      -2.38550000       1.40020000
H       -1.68760000      -2.05720000       2.37300000
