19
Properties=species:S:1:pos:R:3 gdb_47565=T pbc="F F F"
O       -0.03300000      -0.11800000       0.06960000
C        0.02070000       1.08820000       0.02770000
C       -1.25240000       1.95120000       0.01410000
N       -1.43460000       2.86300000      -1.11620000
C       -0.35920000       3.82860000      -1.34030000
C        0.87970000       3.25250000      -2.01150000
C        2.26000000       3.57320000      -1.55290000
N        1.70630000       2.23460000      -1.35670000
C        1.36250000       1.83230000       0.01130000
H       -2.10530000       1.26930000       0.05870000
H       -1.25700000       2.55270000       0.93520000
H       -1.60900000       2.33170000      -1.96370000
H       -0.74640000       4.63570000      -1.97420000
H       -0.11150000       4.28440000      -0.37540000
H        0.73440000       3.04310000      -3.07210000
H        3.08210000       3.64970000      -2.25950000
H        2.35420000       4.21500000      -0.67700000
H        1.30640000       2.68430000       0.70930000
H        2.13530000       1.14680000       0.36900000
