15
Properties=species:S:1:pos:R:3 gdb_34738=T pbc="F F F"
N        0.51070000      -1.04860000      -0.08260000
C        0.28920000       0.08560000      -0.07960000
C        0.00910000       1.51730000      -0.07440000
N       -0.30460000       2.18030000       1.28410000
C        0.91770000       2.77380000       2.05990000
C        2.39750000       2.40650000       1.83630000
C        2.33910000       2.05380000       0.35850000
C        1.17700000       2.51020000      -0.16070000
C        0.42560000       3.40020000       0.83330000
H       -0.86570000       1.72400000      -0.69880000
H        0.55910000       3.06870000       3.04160000
H        3.02280000       3.25160000       2.15630000
H        2.74190000       1.52510000       2.38780000
H        2.78480000       1.12630000       0.01280000
H       -0.06130000       4.35390000       0.66800000
