17
Properties=species:S:1:pos:R:3 gdb_24578=T pbc="F F F"
C        0.00750000       1.43910000      -0.12730000
C        1.35930000       2.04710000       0.10420000
C        2.45940000       1.34840000       0.36840000
C        2.50020000      -0.15100000       0.47200000
C        1.16260000      -0.77710000       0.23740000
C        0.71330000      -2.07450000       0.22170000
N       -0.63350000      -2.12590000      -0.04860000
C       -0.99940000      -0.87330000      -0.19600000
N        0.04610000      -0.01000000      -0.03400000
H       -0.71120000       1.83350000       0.60500000
H       -0.37090000       1.73120000      -1.11700000
H        1.39420000       3.13060000       0.04290000
H        3.40020000       1.86870000       0.52380000
H        3.23760000      -0.54370000      -0.24300000
H        2.88810000      -0.43470000       1.46120000
H        1.28840000      -2.97290000       0.39070000
H       -1.99700000      -0.52360000      -0.41910000
