16
Properties=species:S:1:pos:R:3 gdb_129759=T pbc="F F F"
N       -0.06280000       1.46590000       0.22040000
C       -0.02870000       0.08040000      -0.00200000
C       -1.06060000      -0.80690000      -0.27140000
C       -2.46850000      -1.36880000      -0.33410000
O       -3.20560000      -0.98070000      -1.46520000
C       -1.75420000      -2.79830000      -0.38570000
N       -0.50220000      -2.03500000      -0.33300000
N        0.79960000      -2.09180000      -0.09120000
C        1.09960000      -0.78570000       0.08010000
H        0.83450000       1.90200000       0.05060000
H       -0.76270000       1.93170000      -0.34240000
H       -3.04890000      -1.23250000       0.58760000
H       -4.10940000      -1.29600000      -1.36160000
H       -1.91970000      -3.44530000       0.48050000
H       -1.90760000      -3.34590000      -1.31910000
H        2.12660000      -0.49580000       0.25480000
