17
Properties=species:S:1:pos:R:3 gdb_88327=T pbc="F F F"
C        0.02160000       1.50560000      -0.61460000
C       -0.09890000       0.09660000      -0.09100000
N        1.11330000      -0.71250000      -0.04810000
C        0.47610000      -0.35630000       1.22710000
C        1.23950000       0.58470000       2.12160000
O        2.08440000       1.35200000       1.74240000
N        0.82560000       0.48890000       3.46490000
C        1.26540000       1.23940000       4.55280000
O        2.08510000       2.11360000       4.53830000
H        0.95910000       1.95670000      -0.28880000
H       -0.00290000       1.49640000      -1.70940000
H       -0.81380000       2.12070000      -0.26360000
H       -1.02510000      -0.41370000      -0.35760000
H        0.92250000      -1.68630000      -0.26760000
H       -0.08780000      -1.13260000       1.74290000
H        0.11610000      -0.19720000       3.67680000
H        0.73820000       0.91210000       5.47330000
