23
Properties=species:S:1:pos:R:3 gdb_101897=T pbc="F F F"
C        0.07130000       1.58620000       0.03920000
C        0.01880000       0.05700000       0.01130000
C       -1.40920000      -0.50080000       0.05430000
O       -2.19930000      -0.00180000      -1.02620000
C       -1.43560000      -2.03460000       0.09970000
C       -2.85080000      -2.60870000       0.22010000
C       -2.88000000      -4.14590000       0.18670000
C       -4.29240000      -4.68250000       0.21180000
O       -4.72110000      -5.47260000       1.01280000
H        1.09950000       1.94950000      -0.04810000
H       -0.51570000       2.00760000      -0.78100000
H       -0.34290000       1.97580000       0.97570000
H        0.51330000      -0.31950000      -0.89690000
H        0.58430000      -0.35610000       0.85600000
H       -1.91180000      -0.11310000       0.95110000
H       -1.77000000      -0.27090000      -1.84670000
H       -0.95510000      -2.42350000      -0.81120000
H       -0.81910000      -2.37890000       0.93990000
H       -3.30610000      -2.25840000       1.15540000
H       -3.46600000      -2.20330000      -0.59090000
H       -2.41410000      -4.49340000      -0.74790000
H       -2.32550000      -4.58390000       1.02230000
H       -4.94750000      -4.27480000      -0.59510000
