19
Properties=species:S:1:pos:R:3 gdb_114246=T pbc="F F F"
O        0.10990000       1.02840000       0.71960000
C        0.00900000      -0.26870000       0.16820000
C       -1.39250000      -0.51440000      -0.36180000
C       -1.83500000      -1.98130000      -0.56010000
C       -2.75280000      -1.69940000       0.61950000
C       -4.14900000      -2.16810000       0.89210000
C       -2.99580000      -2.55630000       1.81160000
O       -2.46130000      -3.84550000       1.76360000
O       -2.36160000      -0.32920000       0.71720000
H       -0.62200000       1.10250000       1.34480000
H        0.73950000      -0.33490000      -0.64630000
H        0.25750000      -1.04600000       0.90950000
H       -1.61590000       0.17130000      -1.18620000
H       -2.33950000      -2.18930000      -1.50480000
H       -1.06850000      -2.73700000      -0.37760000
H       -4.86640000      -1.44580000       1.26770000
H       -4.55370000      -2.93140000       0.23420000
H       -2.96320000      -2.06200000       2.78320000
H       -3.09590000      -4.44940000       2.16400000
