17
Properties=species:S:1:pos:R:3 gdb_31087=T pbc="F F F"
C       -0.00360000       1.45300000      -0.04130000
O        0.00360000       0.03980000      -0.02450000
C        0.63920000      -0.54440000       1.02000000
C        0.75290000      -1.89310000       1.17320000
N        0.31170000      -2.96490000       0.41380000
O        1.46680000      -2.12870000       2.36580000
C        1.76510000      -0.93420000       2.90120000
N        2.54430000      -0.96790000       4.05110000
C        1.28970000       0.09220000       2.13730000
H        1.01390000       1.86470000      -0.08050000
H       -0.54220000       1.74760000      -0.94400000
H       -0.52010000       1.86780000       0.83490000
H       -0.36530000      -3.55310000       0.88880000
H        1.06160000      -3.55200000       0.06350000
H        2.37320000      -1.79670000       4.60660000
H        2.44720000      -0.13440000       4.61450000
H        1.39190000       1.14520000       2.33770000
