24
Properties=species:S:1:pos:R:3 gdb_10779=T pbc="F F F"
C        0.05070000       1.64610000      -0.23790000
C        0.17460000       0.12660000      -0.12960000
C        1.11160000      -0.58050000      -1.16650000
C        1.44720000       0.09540000      -2.49010000
C        2.20580000      -0.74100000      -0.05760000
C        3.39430000       0.21800000      -0.11930000
C        1.10020000      -0.42660000       1.00630000
C        1.42260000       0.42930000       2.22470000
H        1.01930000       2.15370000      -0.26870000
H       -0.49400000       1.92730000      -1.14560000
H       -0.50320000       2.05200000       0.61550000
H       -0.83840000      -0.29030000      -0.10540000
H        0.69620000      -1.57090000      -1.38490000
H        1.86920000       1.09540000      -2.35520000
H        2.17560000      -0.49570000      -3.05680000
H        0.55240000       0.19710000      -3.11460000
H        2.60220000      -1.75980000       0.01660000
H        3.09450000       1.26730000      -0.19520000
H        4.01810000       0.12090000       0.77590000
H        4.02730000      -0.00390000      -0.98530000
H        0.68190000      -1.37670000       1.35770000
H        1.84700000       1.40050000       1.95470000
H        0.52140000       0.61760000       2.81930000
H        2.14440000      -0.07560000       2.87670000
