17
Properties=species:S:1:pos:R:3 gdb_1188=T pbc="F F F"
C       -0.05100000       1.56900000      -0.02380000
C       -0.07730000       0.03580000      -0.05970000
O        0.50010000      -0.49660000       1.13750000
C       -1.51580000      -0.50120000      -0.05730000
O       -2.19420000      -0.14580000       1.12950000
C        0.70700000      -0.51140000      -1.25610000
O        2.07040000      -0.14510000      -1.05160000
H        0.97720000       1.93150000       0.05150000
H       -0.49460000       1.99030000      -0.93250000
H       -0.62390000       1.92210000       0.83540000
H        1.45370000      -0.37750000       1.05000000
H       -2.08400000      -0.07640000      -0.89160000
H       -1.48580000      -1.59530000      -0.18480000
H       -1.60260000      -0.39650000       1.84990000
H        0.59890000      -1.60460000      -1.28940000
H        0.31940000      -0.09260000      -2.19680000
H        2.61940000      -0.64950000      -1.65780000
