23
Properties=species:S:1:pos:R:3 gdb_100645=T pbc="F F F"
C       -0.21100000       1.58910000      -0.08570000
C        0.03400000       0.07880000       0.00890000
C        0.85440000      -0.48940000      -1.16560000
C        2.32490000      -0.05280000      -1.11370000
C        0.68510000      -2.04220000      -1.28690000
C        1.18330000      -2.81010000      -0.05460000
O       -0.70770000      -2.37220000      -1.39160000
C        1.37680000      -2.52210000      -2.49600000
C        1.90180000      -2.90500000      -3.50820000
H        0.72180000       2.16120000      -0.06240000
H       -0.73520000       1.84730000      -1.01300000
H       -0.82770000       1.93520000       0.74970000
H        0.54600000      -0.14330000       0.95380000
H       -0.92760000      -0.44180000       0.04240000
H        0.42250000      -0.08880000      -2.09550000
H        2.89740000      -0.48040000      -1.94070000
H        2.40670000       1.03560000      -1.17980000
H        2.79940000      -0.35990000      -0.17530000
H        0.62050000      -2.50060000       0.82880000
H        1.02700000      -3.87990000      -0.20690000
H        2.24670000      -2.63280000       0.11680000
H       -1.01690000      -2.05640000      -2.24810000
H        2.37030000      -3.25380000      -4.39540000
