16
Properties=species:S:1:pos:R:3 gdb_84414=T pbc="F F F"
C        0.05570000       1.45760000      -0.12350000
N        0.01300000       0.01340000      -0.05190000
C       -0.00540000      -0.86910000      -1.14750000
C       -0.02040000      -2.14880000      -0.76410000
C       -0.00850000      -2.18190000       0.73660000
C        1.13490000      -2.94100000       1.40460000
O        1.84260000      -3.73300000       0.84410000
C        0.02240000      -0.69040000       1.13590000
O        0.06370000      -0.22380000       2.25350000
H        0.95400000       1.80290000      -0.64710000
H       -0.82690000       1.85570000      -0.63580000
H        0.07380000       1.83130000       0.90160000
H       -0.00440000      -0.45420000      -2.14580000
H       -0.00860000      -3.01450000      -1.40560000
H       -0.92880000      -2.60470000       1.16960000
H        1.24760000      -2.69800000       2.48220000
