15
Properties=species:S:1:pos:R:3 gdb_8846=T pbc="F F F"
C       -0.13900000       1.50870000      -0.84180000
N       -0.00640000       0.06950000      -0.94270000
C        0.71470000      -0.66290000      -0.07010000
O        1.35730000      -0.23890000       0.87510000
C        0.69890000      -2.17920000      -0.37080000
O       -0.14340000      -2.54440000      -1.42810000
C        2.12620000      -2.61710000      -0.65670000
O        2.38690000      -3.23730000      -1.65940000
H        0.44570000       1.83470000       0.01950000
H        0.24090000       2.00480000      -1.74140000
H       -1.18460000       1.80070000      -0.69610000
H       -0.49790000      -0.45130000      -1.65400000
H        0.39330000      -2.65920000       0.57260000
H        0.42950000      -3.01700000      -2.05730000
H        2.88350000      -2.32560000       0.09060000
