21
Properties=species:S:1:pos:R:3 gdb_64659=T pbc="F F F"
C       -0.03860000       1.64770000       0.33760000
C        0.00490000       0.14350000       0.15150000
C       -1.31140000      -0.43840000      -0.38160000
C       -1.66150000       0.03470000      -1.71860000
C       -1.93880000       0.43150000      -2.81900000
C        1.21770000      -0.60950000      -0.33700000
C        2.52820000      -0.01600000       0.19420000
C        2.00690000      -0.20450000       1.65630000
C        0.70520000      -0.79790000       1.10190000
H        0.91220000       2.05690000       0.68430000
H       -0.29100000       2.14150000      -0.60630000
H       -0.80440000       1.92370000       1.07260000
H       -1.24620000      -1.53360000      -0.39520000
H       -2.12470000      -0.18990000       0.31390000
H       -2.18850000       0.77600000      -3.79180000
H        1.14360000      -1.28450000      -1.18250000
H        3.38900000      -0.65440000      -0.01590000
H        2.77130000       1.00160000      -0.12720000
H        2.59680000      -0.93980000       2.20750000
H        1.91160000       0.69230000       2.27660000
H        0.18160000      -1.64450000       1.53350000
