16
Properties=species:S:1:pos:R:3 gdb_44507=T pbc="F F F"
O        0.01030000      -0.09750000       0.09550000
C       -0.01640000       1.11400000       0.02900000
C       -1.31060000       1.92770000      -0.01980000
C       -1.09770000       3.43440000      -0.10150000
C        0.02210000       3.99020000      -1.03000000
O        0.09770000       5.19980000      -0.19410000
C        0.01610000       4.08850000       0.76820000
C        1.06710000       3.32300000      -0.08820000
N        1.11190000       1.88900000      -0.00960000
H       -1.88950000       1.56760000      -0.87760000
H       -1.89540000       1.66300000       0.86820000
H       -2.02210000       4.01440000      -0.13630000
H        0.03560000       4.11410000      -2.11330000
H        0.02240000       4.32990000       1.83160000
H        2.06360000       3.76160000      -0.10890000
H        1.99570000       1.40410000       0.01990000
