15
Properties=species:S:1:pos:R:3 gdb_125038=T pbc="F F F"
C        0.02130000       1.57370000       0.04750000
C        0.00630000       0.07360000       0.02730000
C       -1.13850000      -0.65300000       0.07220000
N       -2.40830000      -0.14210000       0.16930000
N       -1.13500000      -2.05670000       0.06980000
N       -0.09660000      -2.72050000       0.01810000
O        1.14620000      -2.04580000      -0.04130000
C        1.25310000      -0.65530000      -0.04480000
N        2.39930000      -0.11060000      -0.10800000
H        1.03340000       1.92880000       0.24050000
H       -0.30160000       1.99340000      -0.91480000
H       -0.65040000       1.96380000       0.82110000
H       -2.56070000       0.79580000      -0.16360000
H       -3.14830000      -0.79670000      -0.03210000
H        3.13570000      -0.81470000      -0.14770000
