19
Properties=species:S:1:pos:R:3 gdb_13512=T pbc="F F F"
C       -0.73570000       1.30080000       0.20780000
C       -0.24990000      -0.14210000       0.11910000
C        0.79690000      -0.40680000      -1.00340000
C        1.91930000      -0.43830000       0.06600000
C        0.84810000      -0.56610000       1.17570000
C        1.01930000       0.32760000       2.39030000
N        0.34620000      -0.08050000       3.50750000
O        1.68050000       1.35060000       2.37380000
H        0.10060000       2.00280000       0.26840000
H       -1.33420000       1.55150000      -0.67470000
H       -1.36100000       1.45800000       1.09350000
H       -1.11170000      -0.81640000       0.10300000
H        0.64970000      -1.37410000      -1.49150000
H        0.87460000       0.36050000      -1.77860000
H        2.65450000      -1.24310000      -0.00010000
H        2.44320000       0.51450000       0.16380000
H        0.69350000      -1.60440000       1.48580000
H       -0.23610000      -0.89880000       3.51460000
H        0.35660000       0.51640000       4.31840000
