20
Properties=species:S:1:pos:R:3 gdb_110392=T pbc="F F F"
C       -0.10550000       1.67170000       0.09560000
C       -0.12200000       0.14620000       0.02090000
N        0.66560000      -0.43640000       1.10670000
C        2.14470000      -0.52810000       0.88730000
C        2.25480000      -1.75620000       1.84030000
C        3.07990000      -2.54890000       0.82680000
O        2.92220000      -3.94550000       0.94010000
C        2.09510000      -1.77600000      -0.07280000
C        0.94550000      -1.89970000       1.00320000
H        0.90660000       2.06490000      -0.04980000
H       -0.74480000       2.10720000      -0.67870000
H       -0.45940000       2.00970000       1.07360000
H       -1.15100000      -0.21710000       0.13830000
H        0.21690000      -0.18140000      -0.97840000
H        2.80530000       0.33830000       0.83830000
H        2.32120000      -1.72170000       2.92640000
H        4.13860000      -2.26570000       0.73790000
H        3.34820000      -4.36020000       0.18350000
H        2.00990000      -1.78870000      -1.15940000
H        0.17330000      -2.66390000       1.08490000
