18
Properties=species:S:1:pos:R:3 gdb_87200=T pbc="F F F"
N        0.45280000       0.89330000       0.40170000
H        0.04910000      -0.54810000       1.73960000
H        1.41050000       1.20000000       0.53840000
H        0.23710000       0.98520000      -0.58530000
C       -0.45760000       1.65750000       1.22350000
C       -1.89500000       1.17380000       1.27600000
C       -0.97090000       0.89940000       2.43160000
O       -0.47520000      -0.41540000       2.55540000
C       -1.15590000       1.56210000       3.77710000
C        0.13340000       1.72610000       4.59150000
O        0.97430000       0.67780000       4.55070000
O        0.37620000       2.70610000       5.24300000
H       -0.29010000       2.72870000       1.32500000
H       -2.67570000       1.91820000       1.38610000
H       -2.15540000       0.32260000       0.65550000
H        0.60910000       0.00900000       3.93440000
H       -1.59500000       2.55420000       3.66150000
H       -1.85650000       0.96410000       4.37520000
