21
Properties=species:S:1:pos:R:3 gdb_101890=T pbc="F F F"
C       -0.01500000       1.56240000       0.05590000
C        0.05130000       0.03260000      -0.00900000
C        0.75460000      -0.44930000      -1.27870000
O        0.00330000       0.00170000      -2.39490000
C        0.73560000      -0.55860000       1.22180000
O       -0.01770000      -0.21940000       2.37090000
C        0.54290000      -0.68250000       3.56920000
C       -0.35690000      -0.24930000       4.71400000
O       -0.13260000      -0.49690000       5.86850000
H        0.99420000       1.99210000       0.09240000
H       -0.51840000       1.95830000      -0.82810000
H       -0.55230000       1.88800000       0.94910000
H       -0.97140000      -0.36510000      -0.03640000
H        1.78350000      -0.05180000      -1.30560000
H        0.82730000      -1.54930000      -1.27140000
H        0.47560000      -0.24270000      -3.19560000
H        0.81230000      -1.65590000       1.13550000
H        1.76360000      -0.16660000       1.31720000
H        0.63420000      -1.78240000       3.58890000
H        1.55440000      -0.27560000       3.74080000
H       -1.25120000       0.32350000       4.38330000
