20
Properties=species:S:1:pos:R:3 gdb_110969=T pbc="F F F"
C        0.01030000       1.52300000      -0.41600000
C        0.06820000       0.03820000      -0.10510000
N        1.19870000      -0.80850000      -0.73680000
C        2.11490000      -0.23940000       0.35660000
C        0.80620000      -0.57140000       1.12600000
O        0.51230000      -0.49260000       2.47660000
C        0.85100000      -1.88760000       0.32720000
C       -0.31760000      -2.80320000       0.00830000
O       -0.03550000      -3.53730000      -1.17310000
H        0.90120000       2.08430000      -0.12690000
H       -0.14370000       1.67100000      -1.49010000
H       -0.84620000       1.96870000       0.10160000
H       -0.90960000      -0.39430000      -0.31980000
H        2.98990000      -0.86240000       0.55490000
H        2.40190000       0.79970000       0.20060000
H        0.57800000       0.42710000       2.75690000
H        1.72850000      -2.51230000       0.52170000
H       -0.42530000      -3.53370000       0.81750000
H       -1.27690000      -2.27440000      -0.07140000
H        0.30340000      -2.90040000      -1.81400000
