19
Properties=species:S:1:pos:R:3 gdb_82869=T pbc="F F F"
C        0.08460000       1.58990000      -0.14390000
C        0.01430000       0.08650000      -0.09310000
C        0.45060000      -0.83730000      -1.24680000
C       -0.28240000      -1.90570000      -0.41580000
O        0.58480000      -2.03250000       0.73470000
C        0.38820000      -0.70770000       1.24120000
C       -1.12150000      -0.76800000       1.61820000
O       -1.69070000       0.41260000       2.14480000
C       -1.28770000      -0.80050000       0.09590000
H        1.12820000       1.92710000      -0.17040000
H       -0.40830000       1.97520000      -1.04350000
H       -0.40220000       2.03610000       0.72570000
H       -0.08240000      -0.57600000      -2.16610000
H        1.51200000      -1.00840000      -1.44700000
H       -0.57850000      -2.88470000      -0.78820000
H        1.18100000      -0.41480000       1.93060000
H       -1.41180000      -1.65860000       2.19120000
H       -1.39960000       0.49630000       3.05870000
H       -2.23070000      -0.63840000      -0.42290000
