17
Properties=species:S:1:pos:R:3 gdb_20883=T pbc="F F F"
C        0.03730000       1.54960000      -0.03570000
C        0.24830000       0.03460000      -0.08080000
C        0.55190000      -0.54120000       1.30680000
N        0.73240000      -1.98500000       1.29290000
C        1.83530000      -2.71080000       0.99140000
C        1.41490000      -4.01640000       1.07510000
N        0.09750000      -4.02700000       1.41540000
N       -0.31470000      -2.79720000       1.54420000
H        0.92610000       2.06640000       0.34310000
H       -0.17600000       1.94380000      -1.03310000
H       -0.80360000       1.81470000       0.61400000
H       -0.64390000      -0.46430000      -0.47410000
H        1.07260000      -0.21130000      -0.76090000
H        1.45580000      -0.08820000       1.72710000
H       -0.27460000      -0.34370000       1.99390000
H        2.78320000      -2.25480000       0.76010000
H        1.97040000      -4.92730000       0.92230000
