19
Properties=species:S:1:pos:R:3 gdb_112932=T pbc="F F F"
C       -0.62710000       1.16350000       0.27670000
C       -0.34900000      -0.25500000       0.10960000
C       -0.12360000      -1.42990000      -0.03260000
C        0.15450000      -2.84500000      -0.19770000
C        0.71030000      -3.61500000       1.03350000
C       -0.60180000      -4.41720000       0.96190000
C       -1.60760000      -4.22400000       2.08510000
O       -2.89420000      -4.63130000       1.66730000
O       -1.04080000      -3.68080000      -0.21310000
H       -0.32990000       1.51480000       1.27080000
H       -0.09050000       1.76470000      -0.46530000
H       -1.69680000       1.36820000       0.15880000
H        0.73220000      -3.00970000      -1.11560000
H        1.62110000      -4.18110000       0.83800000
H        0.83880000      -3.00830000       1.93090000
H       -0.49900000      -5.48300000       0.72580000
H       -1.33550000      -4.83700000       2.95220000
H       -1.59890000      -3.16720000       2.39890000
H       -3.05600000      -4.16540000       0.83690000
