16
Properties=species:S:1:pos:R:3 gdb_34062=T pbc="F F F"
N       -0.04560000      -1.06400000      -0.03840000
C       -0.03440000       0.09430000      -0.02860000
C       -0.05290000       1.52340000       0.00980000
C       -1.38510000       2.35220000       0.23260000
C       -0.53210000       3.47450000      -0.37190000
C        0.16510000       4.22660000       0.50260000
C        1.57200000       3.66510000       0.66570000
C        1.36240000       2.29060000       0.00720000
C        0.39150000       2.46990000      -1.08840000
H       -2.16670000       1.92020000      -0.40080000
H       -1.75400000       2.49960000       1.25010000
H       -0.31340000       4.74060000       1.33110000
H        2.40080000       4.19200000       0.17160000
H        1.81070000       3.62750000       1.73470000
H        2.19170000       1.59470000      -0.09890000
H        0.48210000       2.27180000      -2.14790000
