19
Properties=species:S:1:pos:R:3 gdb_46499=T pbc="F F F"
N       -0.05080000       1.31170000       0.68430000
C        0.04770000       0.08920000       0.36930000
C       -1.11730000      -0.70170000      -0.16940000
C       -1.30100000      -2.04690000       0.56820000
C        0.05650000      -2.67670000       0.88640000
C        0.31120000      -3.28480000       2.21740000
N        0.20750000      -4.13070000       1.01130000
C        1.19820000      -1.99360000       0.16500000
O        1.22380000      -0.59590000       0.48680000
H        0.85310000       1.66100000       1.01130000
H       -2.00960000      -0.07960000      -0.10700000
H       -0.93130000      -0.89560000      -1.23350000
H       -1.87000000      -1.88870000       1.48940000
H       -1.89330000      -2.71930000      -0.06370000
H        1.30170000      -3.24180000       2.66310000
H       -0.50740000      -3.29600000       2.93230000
H       -0.70610000      -4.57740000       0.97790000
H        2.16130000      -2.39600000       0.48220000
H        1.11540000      -2.13070000      -0.92180000
