19
Properties=species:S:1:pos:R:3 gdb_34644=T pbc="F F F"
C        0.06350000      -1.25800000      -0.16490000
C       -0.02450000      -0.05990000      -0.06270000
C       -0.06170000       1.36180000       0.06030000
C       -1.25830000       1.97740000       0.06330000
C       -1.59580000       3.44130000       0.12370000
C       -0.44930000       4.42420000      -0.16460000
C        0.65890000       4.33790000       0.85280000
C        1.42670000       3.26140000       0.99950000
C        1.31950000       2.01400000       0.15370000
H        0.12020000      -2.31410000      -0.25680000
H       -2.12760000       1.32580000       0.00440000
H       -2.41110000       3.62220000      -0.59060000
H       -2.02680000       3.66440000       1.11150000
H       -0.05480000       4.21630000      -1.16880000
H       -0.85580000       5.43970000      -0.19700000
H        0.81310000       5.19430000       1.50440000
H        2.20380000       3.25950000       1.75940000
H        2.00930000       1.25820000       0.53720000
H        1.67100000       2.22670000      -0.86830000
