11
Properties=species:S:1:pos:R:3 gdb_118=T pbc="F F F"
C       -0.01330000       1.45420000      -0.00940000
C       -0.01880000      -0.00050000       0.02730000
C       -0.03100000      -1.20340000       0.05450000
C       -0.02240000      -2.65950000       0.09720000
O       -1.25710000      -3.16270000      -0.40260000
H        0.79570000       1.83590000      -0.64200000
H       -0.95710000       1.83790000      -0.41200000
H        0.11650000       1.87970000       0.99180000
H        0.82730000      -3.03360000      -0.49760000
H        0.14860000      -2.98980000       1.13510000
H       -1.21230000      -4.12330000      -0.35820000
