21
Properties=species:S:1:pos:R:3 gdb_118533=T pbc="F F F"
C        0.17570000       1.40810000      -0.03230000
O        0.06640000       0.00370000      -0.16480000
C       -1.23310000      -0.54140000      -0.01210000
C       -1.24230000      -1.87120000      -0.77000000
C       -0.95790000      -1.71390000      -2.26560000
O       -1.02870000      -2.94940000      -2.96250000
C       -1.60060000      -0.76310000       1.47980000
C       -1.98320000       0.43720000       2.21350000
C       -2.33340000       1.41620000       2.81780000
H        1.19040000       1.67350000      -0.34060000
H       -0.54010000       1.93010000      -0.68500000
H        0.01350000       1.74500000       0.99760000
H       -1.97570000       0.13980000      -0.45850000
H       -0.48730000      -2.53250000      -0.32250000
H       -2.21510000      -2.35910000      -0.64530000
H       -1.72110000      -1.07380000      -2.72340000
H        0.01200000      -1.22060000      -2.40800000
H       -0.29260000      -3.49410000      -2.66680000
H       -2.43020000      -1.47950000       1.52880000
H       -0.74130000      -1.24440000       1.96240000
H       -2.63420000       2.28270000       3.35250000
