16
Properties=species:S:1:pos:R:3 gdb_67138=T pbc="F F F"
C       -0.10140000       1.53760000      -0.11740000
C        0.01520000       0.05630000      -0.05830000
C        0.55410000      -1.05190000      -0.89600000
C        1.30220000      -1.60120000       0.30850000
N        0.36390000      -0.77940000       1.18720000
C       -0.92660000      -1.50510000       0.95260000
O       -1.62420000      -2.08720000       1.71930000
C       -0.95880000      -1.04450000      -0.46710000
O       -1.98320000      -0.93800000      -1.36790000
H        0.87100000       2.01990000       0.02150000
H       -0.50470000       1.84200000      -1.08790000
H       -0.77790000       1.89930000       0.66330000
H        0.79670000      -1.04490000      -1.95370000
H        1.27160000      -2.67690000       0.51460000
H        2.32760000      -1.23340000       0.39950000
H       -2.05150000      -1.75820000      -1.86960000
