17
Properties=species:S:1:pos:R:3 gdb_96616=T pbc="F F F"
C       -0.73360000       1.73460000       0.76230000
N       -0.55450000       0.34070000       1.10970000
C       -0.63260000      -0.50980000       0.15570000
N       -0.91330000      -0.26820000      -1.16420000
C       -0.44040000      -1.96270000       0.57380000
O       -0.58180000      -2.30150000       1.72590000
C       -0.03180000      -3.04860000      -0.43680000
N        0.20700000      -4.22650000       0.18860000
N        0.06050000      -2.78030000      -1.69050000
H       -0.61610000       2.35300000       1.65530000
H        0.00310000       2.08420000       0.01780000
H       -1.73310000       1.93080000       0.34190000
H       -0.81900000       0.68270000      -1.48370000
H       -0.63930000      -1.00640000      -1.80970000
H       -0.00370000      -4.27190000       1.17380000
H        0.36930000      -5.07050000      -0.33100000
H        0.33510000      -3.59460000      -2.24130000
