7
Properties=species:S:1:pos:R:3 gdb_3827=T pbc="F F F"
N        0.04620000      -1.13570000      -0.00450000
C       -0.00460000       0.01820000       0.00270000
C       -0.04880000       1.43730000       0.01140000
N       -1.14810000       2.14560000       0.02980000
O       -0.72480000       3.41450000       0.03150000
N        0.68290000       3.43200000       0.01330000
N        1.07840000       2.24450000       0.00130000
