19
Properties=species:S:1:pos:R:3 gdb_91826=T pbc="F F F"
O       -0.18760000       1.47830000      -0.18830000
C        0.00870000       0.07980000      -0.00180000
C       -1.38620000      -0.54520000       0.11410000
C       -1.34950000      -2.07020000       0.04320000
C       -1.74710000      -2.78730000      -1.23770000
C       -0.30390000      -2.71820000      -0.83400000
O        0.23980000      -3.95620000      -0.44640000
C        0.64200000      -1.80430000      -1.52740000
C        0.79360000      -0.53700000      -1.14350000
H        0.67380000       1.90750000      -0.17840000
H        0.56100000      -0.09370000       0.93920000
H       -1.85690000      -0.21130000       1.04360000
H       -1.98450000      -0.13250000      -0.70560000
H       -1.57210000      -2.60590000       0.96020000
H       -2.22300000      -3.75740000      -1.14500000
H       -2.07610000      -2.18410000      -2.07720000
H        0.95680000      -3.77630000       0.17230000
H        1.22490000      -2.22530000      -2.34330000
H        1.50390000       0.11460000      -1.64910000
