18
Properties=species:S:1:pos:R:3 gdb_10976=T pbc="F F F"
C       -0.03480000       1.53950000       0.04950000
C       -0.03220000       0.02940000      -0.00090000
C        0.35970000      -0.80230000      -1.27400000
C       -0.35920000      -1.95450000      -0.49850000
C        0.53140000      -2.04310000       0.74590000
C        0.74290000      -0.76100000       1.06830000
C       -1.36380000      -0.82940000      -0.04080000
O       -2.16030000      -0.97570000       1.08810000
H        0.98210000       1.94590000       0.00730000
H       -0.59810000       1.96250000      -0.78860000
H       -0.49940000       1.89730000       0.97510000
H       -0.16530000      -0.48360000      -2.18100000
H        1.42640000      -0.93280000      -1.46590000
H       -0.68760000      -2.87470000      -0.97990000
H        0.88630000      -2.94580000       1.22340000
H        1.31620000      -0.33370000       1.88010000
H       -2.02820000      -0.51210000      -0.85010000
H       -1.57330000      -1.26270000       1.80160000
