19
Properties=species:S:1:pos:R:3 gdb_6878=T pbc="F F F"
C       -0.10840000       1.54640000      -0.06920000
C        0.03160000       0.04490000       0.04450000
C        1.37580000      -0.65640000      -0.18330000
C        2.55870000       0.11990000      -0.41350000
N        3.51250000       0.75150000      -0.59320000
C        0.70070000      -0.65780000       1.19610000
C        1.32800000       0.13580000       2.32620000
C        0.11530000      -1.98850000       1.63370000
H        0.79470000       2.07370000       0.24440000
H       -0.30900000       1.83290000      -1.10650000
H       -0.94240000       1.90370000       0.54410000
H       -0.80140000      -0.50310000      -0.38980000
H        1.35690000      -1.59030000      -0.73590000
H        1.83810000       1.03620000       1.98040000
H        0.56260000       0.43350000       3.05160000
H        2.06700000      -0.47570000       2.85490000
H        0.88100000      -2.62330000       2.09330000
H       -0.67780000      -1.83440000       2.37430000
H       -0.31730000      -2.53750000       0.79160000
