17
Properties=species:S:1:pos:R:3 gdb_124263=T pbc="F F F"
C       -0.02410000       1.54270000      -0.03640000
C        0.05140000       0.02210000      -0.02820000
O        1.12550000      -0.55160000      -0.04900000
C       -1.21470000      -0.71920000       0.00600000
C       -2.50790000      -0.21530000       0.03160000
N       -3.32950000      -1.27800000       0.05780000
N       -2.67160000      -2.46430000       0.05190000
C       -1.38530000      -2.14080000       0.02030000
C       -0.33200000      -3.19840000       0.00410000
H        0.98720000       1.94920000      -0.06430000
H       -0.58410000       1.89930000      -0.90800000
H       -0.53990000       1.91060000       0.85740000
H       -2.88410000       0.79570000       0.03270000
H       -4.33530000      -1.28190000       0.08050000
H        0.29800000      -3.10860000      -0.88520000
H        0.33720000      -3.09620000       0.86310000
H       -0.80030000      -4.18470000       0.02170000
