18
Properties=species:S:1:pos:R:3 gdb_29516=T pbc="F F F"
C       -0.00830000       1.52720000      -0.00330000
C        0.03660000       0.03210000       0.03500000
C        0.14490000      -0.82190000      -1.03070000
O        0.14060000      -2.13720000      -0.65160000
C        0.06050000      -2.11060000       0.70340000
C       -0.02360000      -0.84490000       1.16880000
N       -0.30170000      -0.80470000       2.55260000
C       -0.03320000      -2.20600000       3.01190000
C       -0.19170000      -3.13310000       1.75770000
H        0.83510000       1.97440000       0.53650000
H        0.02580000       1.89600000      -1.03230000
H       -0.92460000       1.91140000       0.45970000
H        0.25580000      -0.64340000      -2.08830000
H        0.25110000      -0.13260000       3.07230000
H        0.99500000      -2.29580000       3.38770000
H       -0.71680000      -2.47780000       3.81980000
H       -1.20510000      -3.55490000       1.69640000
H        0.51000000      -3.97250000       1.78880000
