17
Properties=species:S:1:pos:R:3 gdb_53836=T pbc="F F F"
N       -0.04610000       1.24750000      -0.04710000
C        0.04290000      -0.10790000       0.07740000
N        1.14990000      -0.72820000       0.21880000
C       -1.33460000      -0.75540000       0.03540000
O       -2.34770000      -0.14770000      -0.21250000
O       -1.27190000      -2.06780000       0.30060000
C       -2.49730000      -2.78390000       0.25550000
C       -2.69550000      -3.74050000      -0.88080000
C       -2.38310000      -4.24820000       0.51420000
H        0.80460000       1.75210000      -0.23090000
H       -0.91840000       1.62450000      -0.37790000
H        0.97280000      -1.72270000       0.33770000
H       -3.33360000      -2.21000000       0.63260000
H       -3.69740000      -3.85880000      -1.27710000
H       -1.90190000      -3.80110000      -1.61640000
H       -1.38680000      -4.63890000       0.68600000
H       -3.16560000      -4.72660000       1.09170000
