17
Properties=species:S:1:pos:R:3 gdb_17856=T pbc="F F F"
C       -0.06800000       1.49040000      -0.12620000
C        1.47750000       1.46590000       0.01130000
N        1.50700000      -0.02880000       0.22260000
C       -0.00900000      -0.02910000      -0.00480000
C        0.91950000      -0.61150000      -0.98100000
C        1.18790000      -0.30830000      -2.45430000
O        1.27190000      -1.72070000      -2.74070000
C        1.10100000      -2.07830000      -1.34960000
H       -0.55650000       1.96980000       0.72360000
H       -0.49920000       1.89070000      -1.04920000
H        2.06330000       1.79810000      -0.85210000
H        1.85010000       1.97150000       0.90330000
H       -0.67410000      -0.64480000       0.59410000
H        0.38000000       0.17990000      -3.01400000
H        2.13450000       0.20930000      -2.66060000
H        1.99760000      -2.54460000      -0.92390000
H        0.23550000      -2.73460000      -1.19750000
