17
Properties=species:S:1:pos:R:3 gdb_68437=T pbc="F F F"
O       -0.12200000       1.38530000       0.06410000
C        0.03750000       0.01180000       0.04930000
C        0.88640000      -0.80310000      -0.97040000
N        0.78500000      -1.92550000       0.03830000
C        0.80760000      -0.84440000       1.09790000
C       -0.67630000      -2.20480000      -0.02660000
C       -1.30560000      -0.75620000      -0.03480000
C       -2.21070000      -0.48840000       1.07400000
N       -2.92590000      -0.30400000       1.96360000
H        0.73870000       1.79990000       0.18470000
H        0.47990000      -1.02260000      -1.96180000
H        1.91950000      -0.45600000      -1.04870000
H        1.83280000      -0.50560000       1.26630000
H        0.32550000      -1.09900000       2.04470000
H       -0.91410000      -2.76040000      -0.93550000
H       -0.98910000      -2.78910000       0.83990000
H       -1.82310000      -0.52730000      -0.97070000
