17
Properties=species:S:1:pos:R:3 gdb_80328=T pbc="F F F"
C       -0.03120000       1.55620000      -0.04520000
C       -0.01440000       0.06000000       0.04560000
C       -0.88680000      -0.77470000       0.97520000
O       -1.73380000      -1.80260000       0.58740000
C        0.59260000      -0.93220000       1.04460000
O        0.99890000      -1.83640000       0.00220000
C        0.59750000      -0.86410000      -1.01800000
C       -0.22490000      -1.40750000      -2.08480000
C       -0.88040000      -1.84260000      -2.99380000
H        0.95040000       1.95670000      -0.32430000
H       -0.75790000       1.89360000      -0.79330000
H       -0.31340000       2.00450000       0.91240000
H       -1.32620000      -0.18050000       1.77270000
H       -1.18130000      -2.47540000       0.16680000
H        1.24950000      -0.83290000       1.90190000
H        1.50670000      -0.41710000      -1.44130000
H       -1.47530000      -2.22770000      -3.78520000
