21
Properties=species:S:1:pos:R:3 gdb_69545=T pbc="F F F"
C       -0.08790000       1.56510000       0.03440000
C        0.01900000       0.06680000       0.00080000
C       -0.82790000      -0.83210000       0.85910000
C        0.66470000      -0.90640000       1.00970000
C        1.29470000      -1.69110000      -0.16410000
C        2.75700000      -2.03230000      -0.06270000
O        0.48770000      -2.78990000      -0.69390000
C       -0.04700000      -1.94650000      -1.74650000
C        0.66710000      -0.70880000      -1.17670000
H        0.85400000       2.04290000      -0.25940000
H       -0.86730000       1.92360000      -0.64960000
H       -0.34340000       1.91930000       1.03860000
H       -1.34020000      -0.32040000       1.66860000
H       -1.37030000      -1.68190000       0.45940000
H        1.16300000      -0.69830000       1.95080000
H        2.90760000      -2.82150000       0.68290000
H        3.14390000      -2.39000000      -1.02110000
H        3.33750000      -1.15760000       0.24880000
H        0.31990000      -2.26320000      -2.73110000
H       -1.14320000      -1.93770000      -1.75970000
H        1.27940000      -0.10370000      -1.84560000
