19
Properties=species:S:1:pos:R:3 gdb_74652=T pbc="F F F"
C       -0.05680000       1.48190000       0.08030000
C        0.08640000       0.00180000      -0.04380000
C        0.02260000      -0.77800000      -1.13610000
C        0.10520000      -2.20010000      -0.70050000
C       -1.02610000      -2.68020000       0.35450000
C        0.09700000      -3.40820000       1.12040000
C        0.90700000      -2.18220000       0.64240000
C        0.11200000      -0.94670000       1.14110000
O       -1.24550000      -1.53110000       1.15770000
H        0.78550000       1.92450000       0.62710000
H       -0.11550000       1.96260000      -0.90020000
H       -0.96490000       1.74100000       0.63930000
H       -0.15370000      -0.44460000      -2.15230000
H        0.37580000      -2.96570000      -1.42590000
H       -1.97170000      -3.12810000       0.05430000
H       -0.05990000      -3.56030000       2.19030000
H        0.43230000      -4.32810000       0.63540000
H        1.99450000      -2.11590000       0.65770000
H        0.33570000      -0.53460000       2.12550000
