19
Properties=species:S:1:pos:R:3 gdb_104897=T pbc="F F F"
O        0.16770000       1.33250000      -0.45960000
C        0.10480000       0.00900000       0.02430000
C       -1.34490000      -0.48750000       0.14340000
C       -1.44650000      -2.01590000       0.25050000
O       -2.78750000      -2.45600000       0.20920000
O       -1.95380000       0.14860000       1.25070000
C       -3.23800000       0.60770000       0.85580000
C       -3.03110000       0.90890000      -0.62590000
O       -2.08700000      -0.09100000      -1.02310000
H       -0.27840000       1.32100000      -1.31440000
H        0.67590000      -0.68150000      -0.61550000
H        0.55720000       0.00590000       1.01970000
H       -0.84490000      -2.47610000      -0.54870000
H       -1.03330000      -2.33040000       1.21330000
H       -3.14130000      -2.13000000      -0.62680000
H       -3.99520000      -0.17060000       1.00940000
H       -3.48930000       1.49070000       1.44840000
H       -3.93200000       0.79880000      -1.23490000
H       -2.60800000       1.91020000      -0.77040000
