23
Properties=species:S:1:pos:R:3 gdb_82834=T pbc="F F F"
C       -0.15230000       1.59970000      -0.00480000
C        0.06300000       0.09300000       0.01960000
C        1.07910000      -0.58770000      -0.93900000
C        2.50540000       0.01670000      -0.90450000
C        2.78710000      -0.69020000       0.44300000
C        2.10390000       0.00060000       1.64770000
C        0.73710000      -0.60140000       1.23530000
C        1.48760000      -1.56330000       0.23310000
C        1.41100000      -3.06210000       0.21160000
H        0.78030000       2.15180000       0.14530000
H       -0.57340000       1.92030000      -0.96460000
H       -0.84820000       1.90920000       0.78340000
H       -0.90270000      -0.40500000      -0.13550000
H        0.70090000      -0.91700000      -1.90930000
H        3.11910000      -0.41110000      -1.70340000
H        2.60990000       1.10640000      -0.94160000
H        3.78540000      -1.10410000       0.59750000
H        2.44360000      -0.43820000       2.59110000
H        2.19000000       1.08960000       1.72850000
H        0.08000000      -0.94200000       2.03850000
H        0.38330000      -3.40760000       0.04670000
H        2.03240000      -3.48280000      -0.58830000
H        1.75570000      -3.49370000       1.15910000
