19
Properties=species:S:1:pos:R:3 gdb_67644=T pbc="F F F"
C       -0.11430000       1.49750000      -0.02980000
C        0.10230000       0.01680000      -0.02890000
C        0.15180000      -0.91030000      -1.16880000
C        1.34300000      -1.83600000      -1.00780000
N        1.46210000      -2.04420000       0.44680000
C        0.31710000      -2.93820000       0.86000000
C       -0.54860000      -1.70800000       1.06650000
C        0.72450000      -0.84840000       1.08290000
N       -1.00430000      -1.01160000      -0.21350000
H        0.83240000       2.03140000      -0.17290000
H       -0.79340000       1.78160000      -0.83890000
H       -0.55310000       1.83940000       0.91390000
H       -0.16800000      -0.58410000      -2.15430000
H        1.24060000      -2.80320000      -1.50950000
H        2.24130000      -1.34840000      -1.41020000
H        0.00930000      -3.67280000       0.10860000
H        0.55560000      -3.45610000       1.79520000
H       -1.34890000      -1.66720000       1.80700000
H        1.21660000      -0.41650000       1.95280000
