14
Properties=species:S:1:pos:R:3 gdb_29682=T pbc="F F F"
C       -0.01510000       1.45800000      -0.00070000
N        0.01120000      -0.00810000       0.01870000
C        0.10430000      -0.62320000      -1.21350000
O        0.16260000      -0.04280000      -2.25940000
O        0.12990000      -2.00540000      -1.21020000
C        0.06650000      -2.70020000      -0.05250000
C       -0.02380000      -2.13010000       1.15060000
C       -0.05870000      -0.67720000       1.26540000
O       -0.13930000      -0.06430000       2.30770000
H        0.89630000       1.84020000      -0.46470000
H       -0.87150000       1.80700000      -0.58110000
H       -0.08940000       1.79120000       1.03170000
H        0.09870000      -3.76720000      -0.23570000
H       -0.07270000      -2.71440000       2.05760000
