27
Properties=species:S:1:pos:R:3 gdb_58467=T pbc="F F F"
C       -0.56250000       0.21280000      -2.81780000
C       -0.30070000      -0.54300000      -1.50360000
C        0.79770000       0.15090000      -0.68200000
C       -1.58600000      -0.76500000      -0.69160000
C       -2.24260000       0.52100000      -0.20160000
C       -2.50190000      -1.89020000      -1.13470000
C       -1.73290000      -2.02770000       0.16350000
C       -0.62050000      -3.06400000       0.23440000
C       -2.50340000      -1.96790000       1.47470000
H        0.34230000       0.23080000      -3.43470000
H       -1.35730000      -0.26520000      -3.39920000
H       -0.85400000       1.25340000      -2.64210000
H        0.08210000      -1.52770000      -1.78990000
H        1.00900000      -0.39350000       0.24380000
H        1.72900000       0.21500000      -1.25480000
H        0.51100000       1.17270000      -0.41100000
H       -2.32020000       1.25260000      -1.01200000
H       -3.25700000       0.35250000       0.16380000
H       -1.67440000       0.98850000       0.61010000
H       -3.57520000      -1.73030000      -1.08640000
H       -2.18890000      -2.50230000      -1.97620000
H       -0.09960000      -3.20640000      -0.71400000
H        0.12720000      -2.80010000       0.99230000
H       -1.03930000      -4.03670000       0.51950000
H       -2.86620000      -2.96750000       1.74210000
H       -1.86260000      -1.62440000       2.29620000
H       -3.37210000      -1.30920000       1.43340000
