17
Properties=species:S:1:pos:R:3 gdb_40488=T pbc="F F F"
O       -0.39320000       1.21040000      -0.15290000
C        0.96740000       1.25520000       0.28290000
C        0.25930000      -0.02420000       0.14920000
C       -0.22480000      -0.75410000       1.34590000
O       -0.23700000      -0.08320000       2.64260000
C       -0.74500000      -1.42350000       2.91360000
C       -1.56830000      -1.52860000       1.59560000
C       -0.93450000      -2.88780000       1.22930000
C        0.22470000      -2.14160000       1.92470000
H        1.69440000       1.54670000      -0.47360000
H        1.12080000       1.66330000       1.27900000
H        0.46290000      -0.65580000      -0.71670000
H       -1.01980000      -1.68010000       3.93560000
H       -2.57260000      -1.14510000       1.42010000
H       -1.32870000      -3.76410000       1.75070000
H       -0.81390000      -3.10390000       0.16450000
H        1.24800000      -2.45760000       2.12810000
