13
Properties=species:S:1:pos:R:3 gdb_4316=T pbc="F F F"
N       -0.01440000       1.34230000       0.09730000
C       -0.00590000      -0.01380000       0.03350000
N       -1.15190000      -0.63540000       0.02160000
C       -1.19720000      -1.99770000      -0.00000000
N       -2.26450000      -2.67740000       0.00000000
O        0.05110000      -2.71900000      -0.03200000
C        1.19990000      -2.04430000      -0.02360000
C        1.26690000      -0.70390000       0.01050000
H        0.81710000       1.86770000      -0.10590000
H       -0.90560000       1.79920000      -0.01280000
H       -2.04830000      -3.67230000      -0.02240000
H        2.06360000      -2.70120000      -0.04660000
H        2.21560000      -0.18590000       0.02480000
