19
Properties=species:S:1:pos:R:3 gdb_41940=T pbc="F F F"
C       -0.00490000       1.44270000      -0.04680000
O        1.33840000       1.92070000       0.02360000
C        2.08530000       0.83220000       0.54790000
C        3.56150000       0.76010000       0.22790000
C        4.09530000      -0.54650000       0.88410000
C        3.10220000      -1.69300000       0.94570000
C        1.82670000      -1.62520000       0.55540000
C        1.35600000      -0.34820000      -0.06300000
O       -0.00020000       0.03090000       0.14520000
H       -0.62900000       1.88330000       0.74270000
H       -0.40240000       1.71240000      -1.03600000
H        1.95070000       0.78440000       1.64140000
H        3.70310000       0.73470000      -0.85820000
H        4.10910000       1.62700000       0.60830000
H        5.00110000      -0.87840000       0.36190000
H        4.42270000      -0.33240000       1.91150000
H        3.48820000      -2.62220000       1.35870000
H        1.15490000      -2.47460000       0.62240000
H        1.55620000      -0.36450000      -1.15000000
