21
Properties=species:S:1:pos:R:3 gdb_77395=T pbc="F F F"
C       -0.16360000       1.60700000      -0.02210000
C       -0.05430000       0.08830000      -0.00580000
C        1.15410000      -0.58500000      -0.70770000
C        1.55570000      -0.60340000      -2.15440000
C        2.08820000      -0.34230000       0.52730000
O        2.52160000      -1.73320000       0.62570000
C        1.10650000      -1.80260000       0.27100000
C        0.68340000      -0.59870000       1.17330000
C        0.35620000      -0.63830000       2.63820000
H        0.79250000       2.08410000       0.22070000
H       -0.47490000       1.97160000      -1.00720000
H       -0.90350000       1.95910000       0.70520000
H       -1.02070000      -0.37200000      -0.25100000
H        1.73280000       0.40910000      -2.53340000
H        2.47830000      -1.18000000      -2.27930000
H        0.77950000      -1.06120000      -2.77750000
H        2.82400000       0.43960000       0.71720000
H        0.64330000      -2.78270000       0.14790000
H        1.11360000      -1.21880000       3.17530000
H        0.32940000       0.36840000       3.06950000
H       -0.62000000      -1.10290000       2.81590000
