18
Properties=species:S:1:pos:R:3 gdb_88366=T pbc="F F F"
C        0.15890000       1.44270000       0.11800000
C       -0.05810000      -0.07310000       0.02140000
O        0.48730000      -0.63650000       1.19650000
C       -1.52110000      -0.35100000      -0.03990000
N       -2.65500000      -0.56750000      -0.09340000
C        0.58050000      -0.63230000      -1.25870000
C        2.03470000      -1.05160000      -1.25110000
C        0.94270000      -2.08200000      -1.38960000
O        0.63110000      -2.92280000      -0.30300000
H        1.23280000       1.64260000       0.13730000
H       -0.28980000       1.95890000      -0.73400000
H       -0.28950000       1.82040000       1.03910000
H        0.45580000      -1.59990000       1.08130000
H        0.19990000      -0.16090000      -2.15950000
H        2.65670000      -0.82100000      -2.10860000
H        2.53050000      -1.00670000      -0.28740000
H        0.79260000      -2.55080000      -2.35990000
H        1.33780000      -3.57080000      -0.20880000
