17
Properties=species:S:1:pos:R:3 gdb_1135=T pbc="F F F"
C       -0.36280000       1.59870000      -0.04090000
C        0.03060000       0.12500000       0.01430000
C       -1.17670000      -0.78570000      -0.21700000
C        1.25170000      -0.27000000      -0.89110000
C        1.92030000      -0.87930000       0.34860000
O        2.87320000      -1.58410000       0.51490000
C        0.85370000      -0.29480000       1.28440000
H        0.50280000       2.24920000       0.12490000
H       -0.79220000       1.85610000      -1.01570000
H       -1.11060000       1.83630000       0.72420000
H       -1.62780000      -0.59820000      -1.19770000
H       -0.89410000      -1.84360000      -0.17730000
H       -1.94660000      -0.61810000       0.54440000
H        1.06520000      -0.95700000      -1.72150000
H        1.81370000       0.58970000      -1.27280000
H        1.24070000       0.55400000       1.85930000
H        0.38810000      -0.99920000       1.97970000
