23
Properties=species:S:1:pos:R:3 gdb_95823=T pbc="F F F"
C        0.18630000       1.60340000       0.10700000
C        0.01530000       0.09070000       0.02310000
C        0.62360000      -0.48750000      -1.26650000
C        0.13320000      -1.88530000      -1.69430000
C       -0.17790000      -2.86830000      -0.54790000
C       -0.11010000      -4.31970000      -1.00850000
O        0.72190000      -2.72540000       0.55140000
C        0.34900000      -1.76460000       1.50190000
O        0.67510000      -0.44630000       1.17260000
H        1.24510000       1.87060000       0.02950000
H       -0.35650000       2.10010000      -0.70250000
H       -0.19050000       1.97580000       1.06310000
H       -1.06000000      -0.15200000       0.08060000
H        0.44180000       0.20960000      -2.09260000
H        1.70640000      -0.50790000      -1.10560000
H       -0.77840000      -1.79250000      -2.29850000
H        0.88890000      -2.32880000      -2.35390000
H       -1.19560000      -2.66370000      -0.17800000
H        0.91320000      -4.57140000      -1.30470000
H       -0.41110000      -4.99560000      -0.20380000
H       -0.76740000      -4.48400000      -1.86810000
H       -0.73680000      -1.84800000       1.69900000
H        0.91280000      -1.98890000       2.41090000
