19
Properties=species:S:1:pos:R:3 gdb_117973=T pbc="F F F"
O        0.13440000       1.37420000      -0.27690000
C        0.06400000      -0.01220000       0.01190000
C       -1.35230000      -0.56840000      -0.17150000
C       -1.40960000      -2.08430000       0.08820000
O       -0.94860000      -2.38040000       1.38140000
C       -2.81230000      -2.65000000      -0.10210000
O       -3.34730000      -3.25120000       0.81070000
C       -3.54510000      -2.49480000      -1.42240000
O       -4.74770000      -3.20480000      -1.42920000
H       -0.30730000       1.84790000       0.43480000
H        0.74490000      -0.49990000      -0.69530000
H        0.42270000      -0.24070000       1.02310000
H       -2.03810000      -0.06660000       0.52380000
H       -1.68590000      -0.34270000      -1.19040000
H       -0.76830000      -2.58530000      -0.66050000
H       -1.65450000      -2.89590000       1.80210000
H       -3.71490000      -1.41880000      -1.59420000
H       -2.88240000      -2.83330000      -2.23440000
H       -4.84960000      -3.55660000      -0.53170000
