20
Properties=species:S:1:pos:R:3 gdb_78609=T pbc="F F F"
C       -0.13990000       1.59830000      -0.10340000
C       -0.06090000       0.08010000      -0.08000000
C        1.20070000      -0.61830000      -0.61180000
N        2.01510000      -0.25060000       0.65020000
C        2.46610000      -1.70630000       0.80050000
C        2.89720000      -2.14060000       2.18610000
C        1.02030000      -1.86590000       0.32090000
O        0.23570000      -2.99440000       0.14990000
C        0.58140000      -0.62030000       1.13020000
H        0.79950000       2.04300000       0.23440000
H       -0.34890000       1.96290000      -1.11530000
H       -0.94470000       1.95720000       0.54750000
H       -0.99320000      -0.38930000      -0.40940000
H        1.67400000      -0.57710000      -1.59590000
H        3.23590000      -1.94920000       0.05530000
H        2.13860000      -1.91320000       2.94070000
H        3.07770000      -3.22050000       2.20870000
H        3.82550000      -1.63690000       2.47420000
H        0.62550000      -3.53850000      -0.54360000
H        0.31530000      -0.56130000       2.18620000
