15
Properties=species:S:1:pos:R:3 gdb_2832=T pbc="F F F"
C        0.20840000       1.51550000       0.10020000
C       -0.25020000       0.07770000      -0.16660000
C        0.48840000      -0.54220000      -1.32870000
N        1.82670000      -1.07080000      -1.05800000
C        0.75290000      -2.01370000      -1.43830000
C        0.31560000      -2.94330000      -0.42440000
N       -0.06210000      -3.69590000       0.36800000
H        1.27710000       1.54200000       0.33350000
H        0.03590000       2.15880000      -0.77000000
H       -0.33420000       1.94770000       0.94570000
H       -0.09050000      -0.53860000       0.72370000
H       -1.32580000       0.05530000      -0.38120000
H        0.33680000      -0.04600000      -2.28770000
H        2.45050000      -0.93680000      -1.84940000
H        0.76970000      -2.44160000      -2.43720000
