17
Properties=species:S:1:pos:R:3 gdb_34214=T pbc="F F F"
C       -0.00050000      -1.12810000       0.00300000
C       -0.01520000       0.07420000       0.01560000
C       -0.01640000       1.49640000       0.01770000
O       -1.00200000       2.14210000       0.81360000
C       -0.66300000       3.51140000       0.54110000
C        0.84390000       3.56450000       0.87640000
C        1.22590000       2.38280000      -0.00500000
C        0.26890000       2.38370000      -1.19100000
C       -0.67240000       3.56600000      -1.00270000
H        0.00760000      -2.18970000      -0.00440000
H       -1.33600000       4.17050000       1.08460000
H        1.31210000       4.50510000       0.57240000
H        1.03630000       3.38480000       1.93710000
H        2.21910000       1.95930000      -0.05420000
H        0.52650000       1.96090000      -2.15170000
H       -1.66870000       3.38740000      -1.41500000
H       -0.27560000       4.50660000      -1.39530000
