20
Properties=species:S:1:pos:R:3 gdb_108130=T pbc="F F F"
O       -0.09410000       1.47960000       0.02400000
C        0.01310000       0.06160000       0.10040000
C       -1.38050000      -0.49880000       0.10330000
C       -2.34940000      -0.45420000       1.27960000
N       -3.14020000      -1.53580000       0.57110000
C       -3.62870000      -0.72850000      -0.59460000
C       -2.26240000      -0.41730000      -1.23210000
C       -1.81130000      -1.86640000      -1.56140000
C       -1.77680000      -1.99960000      -0.03990000
H        0.79330000       1.84960000       0.05120000
H        0.58600000      -0.33920000      -0.75180000
H        0.53800000      -0.24720000       1.01930000
H       -1.90150000      -0.85650000       2.19420000
H       -2.91200000       0.45450000       1.51340000
H       -4.27800000      -1.32290000      -1.24350000
H       -4.18920000       0.14050000      -0.24230000
H       -2.16120000       0.40370000      -1.93920000
H       -2.48230000      -2.49800000      -2.15100000
H       -0.79830000      -1.92110000      -1.96910000
H       -1.32950000      -2.82520000       0.51230000
