14
Properties=species:S:1:pos:R:3 gdb_42540=T pbc="F F F"
O        0.07380000       0.07420000       0.04670000
C        0.01690000       1.26540000      -0.03150000
C       -1.08900000       2.27800000       0.01270000
C       -0.12640000       3.21850000       0.78690000
C        1.04570000       2.41320000       0.09480000
N        0.82600000       3.13470000      -1.20980000
C       -0.48900000       3.54490000      -0.63190000
C       -1.30020000       4.58250000      -1.16570000
C       -1.96330000       5.47570000      -1.62230000
H       -2.15530000       2.15630000       0.13850000
H       -0.28040000       3.69370000       1.74540000
H        2.06240000       2.25810000       0.44250000
H        1.41060000       3.97140000      -1.20180000
H       -2.55480000       6.25840000      -2.02950000
