18
Properties=species:S:1:pos:R:3 gdb_11919=T pbc="F F F"
C        0.00650000       1.54180000       0.06130000
C        0.04760000       0.04370000       0.00140000
C       -0.83600000      -0.83470000       0.83280000
C        0.66490000      -0.96280000       1.01650000
C        1.23880000      -1.79210000      -0.14650000
C        0.62330000      -0.77770000      -1.16150000
C        1.31160000      -0.71350000       2.25750000
C        1.88110000      -0.49840000       3.29720000
H        0.95850000       1.97890000      -0.25920000
H       -0.78030000       1.94140000      -0.59030000
H       -0.19530000       1.88870000       1.07970000
H       -1.35200000      -0.34060000       1.64940000
H       -1.38730000      -1.66010000       0.38540000
H        2.32970000      -1.79050000      -0.16340000
H        0.88590000      -2.82680000      -0.20150000
H       -0.10930000      -1.17150000      -1.87390000
H        1.39220000      -0.23630000      -1.71810000
H        2.37630000      -0.31370000       4.21770000
