18
Properties=species:S:1:pos:R:3 gdb_89293=T pbc="F F F"
C       -0.05630000       1.54570000       0.10510000
N        0.09400000       0.10830000       0.15750000
C       -1.11710000      -0.71820000       0.37220000
C       -0.38520000      -1.51560000       1.47300000
C       -1.08350000      -1.98740000       2.71570000
O        0.50120000      -2.54820000       0.91120000
C        1.58930000      -1.69660000       0.88150000
O        2.70220000      -1.95710000       0.56220000
C        0.76540000      -0.48600000       1.34060000
H        0.92910000       2.01740000       0.04290000
H       -0.61380000       1.81910000      -0.79640000
H       -0.58960000       1.96980000       0.97730000
H       -1.96040000      -0.14700000       0.78840000
H       -1.45410000      -1.28110000      -0.50360000
H       -1.78160000      -2.79660000       2.47580000
H       -0.36260000      -2.36700000       3.44510000
H       -1.65020000      -1.17170000       3.17330000
H        1.14210000       0.18560000       2.11360000
