14
Properties=species:S:1:pos:R:3 gdb_3753=T pbc="F F F"
C       -0.04110000       1.42650000       0.03000000
N       -0.03850000      -0.02070000      -0.00130000
N        0.00510000      -0.70330000      -1.13870000
C        0.05300000      -1.97390000      -0.73570000
C        0.04020000      -2.01280000       0.66980000
C        0.07000000      -3.17640000       1.60670000
N       -0.01530000      -0.75080000       1.10960000
H        0.95060000       1.80980000       0.28900000
H       -0.32230000       1.77900000      -0.96140000
H       -0.76230000       1.76900000       0.77380000
H        0.08690000      -2.78060000      -1.45110000
H        0.95670000      -3.79810000       1.44420000
H        0.08320000      -2.82280000       2.63960000
H       -0.80670000      -3.81970000       1.47590000
