16
Properties=species:S:1:pos:R:3 gdb_117916=T pbc="F F F"
O       -0.09670000       1.45810000      -0.19970000
C        0.02140000       0.06050000       0.00080000
C       -1.38590000      -0.52290000      -0.07300000
C       -1.36970000      -2.05120000       0.11040000
O       -0.81610000      -2.41670000       1.34310000
C       -2.77050000      -2.62760000      -0.00820000
O       -3.28980000      -3.24570000       0.89090000
C       -3.46960000      -2.41160000      -1.28270000
N       -3.99960000      -2.24510000      -2.29670000
H        0.76440000       1.85850000      -0.04850000
H        0.65350000      -0.40580000      -0.77380000
H        0.46270000      -0.17820000       0.97760000
H       -2.00410000      -0.07020000       0.70970000
H       -1.82790000      -0.26510000      -1.04170000
H       -0.78120000      -2.49370000      -0.71440000
H       -1.49380000      -2.92260000       1.81660000
