19
Properties=species:S:1:pos:R:3 gdb_59843=T pbc="F F F"
C        0.13740000       1.42780000       0.42640000
C       -0.08840000      -0.08150000       0.33570000
O       -0.29760000      -0.65820000       1.61490000
C       -1.24250000      -0.41940000      -0.63790000
C       -1.46160000      -1.85070000      -0.79990000
C       -1.62220000      -3.03500000      -0.94490000
C       -1.83330000      -4.47230000      -1.03310000
C       -2.10270000      -5.09750000       0.33820000
O       -2.88730000      -5.98810000       0.52120000
H        0.94410000       1.64340000       1.13150000
H        0.40260000       1.85250000      -0.54720000
H       -0.76900000       1.93700000       0.77780000
H        0.82210000      -0.56450000      -0.03600000
H       -1.08150000      -0.25040000       2.00040000
H       -2.16130000       0.06270000      -0.27230000
H       -1.02950000       0.03810000      -1.61290000
H       -2.66170000      -4.73750000      -1.69830000
H       -0.93380000      -4.96600000      -1.43290000
H       -1.49700000      -4.66300000       1.16230000
