15
Properties=species:S:1:pos:R:3 gdb_133006=T pbc="F F F"
C       -0.00940000       1.40460000       0.13380000
N        0.12530000      -0.03640000       0.05280000
C        0.62110000      -0.55380000      -0.99730000
N        0.71980000      -1.97750000      -0.99890000
C        1.22000000      -2.66790000      -2.03180000
F        1.23650000      -3.97540000      -1.86400000
C        1.66870000      -2.04670000      -3.15330000
C        1.55650000      -0.62390000      -3.12070000
N        1.07880000       0.08680000      -2.14230000
H        0.54460000       1.77190000       1.00680000
H        0.34430000       1.93460000      -0.75690000
H       -1.06280000       1.66120000       0.30260000
H        0.38990000      -2.45410000      -0.17120000
H        2.07300000      -2.59410000      -3.98970000
H        1.90060000      -0.06790000      -3.99330000
