16
Properties=species:S:1:pos:R:3 gdb_9899=T pbc="F F F"
C       -0.14830000       1.48160000      -0.18630000
C       -0.02190000      -0.01840000      -0.01690000
C        0.86300000      -0.79610000      -0.90980000
O        1.27670000      -0.47770000       0.41400000
C       -1.15010000      -0.67910000       0.59720000
C       -2.11860000      -1.17980000       1.11130000
C       -3.26100000      -1.85210000       1.72940000
O       -3.68770000      -3.01180000       1.02920000
H        0.75730000       1.88420000      -0.64650000
H       -1.00940000       1.72550000      -0.81560000
H       -0.29000000       1.96280000       0.78560000
H        0.64650000      -1.84640000      -1.09650000
H        1.38980000      -0.27550000      -1.70920000
H       -3.01840000      -2.08190000       2.77940000
H       -4.12570000      -1.17950000       1.74650000
H       -2.92150000      -3.58640000       0.92920000
