12
Properties=species:S:1:pos:R:3 gdb_21972=T pbc="F F F"
O       -0.05080000      -0.00130000       0.00370000
N       -0.03100000       1.22610000       0.00690000
O        0.98790000       1.91460000       0.00190000
C       -1.29170000       1.90620000       0.01720000
C       -1.43640000       3.27800000       0.02180000
N       -2.77350000       3.51800000       0.03130000
C       -3.47860000       2.33110000       0.03280000
C       -2.57630000       1.30020000       0.02420000
H       -0.69540000       4.05800000       0.01890000
H       -3.18880000       4.43410000       0.03640000
H       -4.55610000       2.32860000       0.04000000
H       -2.77970000       0.24320000       0.02280000
