16
Properties=species:S:1:pos:R:3 gdb_33653=T pbc="F F F"
C        0.13320000      -1.21010000      -0.00210000
C        0.05760000      -0.00930000       0.00350000
C       -0.05040000       1.40920000       0.01060000
C       -0.72140000       2.34610000       1.06310000
C        0.65420000       3.00400000       1.23790000
N        1.19490000       2.33560000      -0.00240000
C        0.62150000       3.01370000      -1.22240000
C       -0.74910000       2.35430000      -1.01640000
O       -1.49550000       3.00140000       0.03610000
H        0.20460000      -2.26980000      -0.00720000
H       -1.32850000       2.04390000       1.91840000
H        0.68620000       4.09670000       1.23170000
H        1.19160000       2.62250000       2.11220000
H        0.65370000       4.10630000      -1.20850000
H        1.13540000       2.63910000      -2.11380000
H       -1.37870000       2.05870000      -1.85750000
