15
Properties=species:S:1:pos:R:3 gdb_123619=T pbc="F F F"
C        0.07710000       1.48670000      -0.03660000
C        1.33660000       0.68420000       0.00320000
N       -0.00900000       0.02760000      -0.01040000
C       -0.21780000      -0.62230000      -1.34790000
C        1.03280000      -0.30280000      -2.12160000
C        1.88910000       0.38810000      -1.33010000
O        3.03270000       0.66870000      -1.94540000
N        2.94650000       0.13360000      -3.25010000
C        1.75570000      -0.42520000      -3.33260000
H       -0.27610000       1.97530000       0.86760000
H       -0.14430000       2.01270000      -0.96320000
H        1.93710000       0.60040000       0.90270000
H       -0.35700000      -1.69720000      -1.18860000
H       -1.13850000      -0.23530000      -1.79750000
H        1.48510000      -0.90210000      -4.26450000
