16
Properties=species:S:1:pos:R:3 gdb_133735=T pbc="F F F"
C       -1.54860000      -0.33010000       0.09980000
C       -0.07060000       0.05390000       0.03240000
C        0.73400000      -0.43320000       1.26170000
C        0.76460000      -1.88840000       1.37010000
C        0.77230000      -3.08740000       1.43640000
C        2.16060000       0.12820000       1.23440000
F        2.13500000       1.47180000       1.24280000
F        2.86520000      -0.26530000       2.30070000
F        2.82590000      -0.25560000       0.13800000
H       -2.03360000       0.10810000       0.97910000
H       -2.07800000       0.02980000      -0.78680000
H       -1.67300000      -1.41530000       0.15270000
H        0.39100000      -0.36320000      -0.86790000
H        0.03500000       1.14150000      -0.02530000
H        0.27940000      -0.01580000       2.16990000
H        0.78960000      -4.14720000       1.50590000
