17
Properties=species:S:1:pos:R:3 gdb_99545=T pbc="F F F"
C        0.03770000       1.58510000       0.03350000
C       -0.00230000       0.05620000       0.02110000
C       -1.43880000      -0.51320000      -0.00200000
C       -2.13780000      -0.13350000      -1.23190000
N       -2.65860000       0.16220000      -2.22010000
C       -1.42890000      -2.06710000       0.15010000
O       -0.72480000      -2.47900000       1.30080000
C       -2.79970000      -2.61150000       0.15110000
N       -3.87290000      -3.03330000       0.21950000
H        1.07230000       1.93810000       0.05600000
H       -0.44260000       2.00540000      -0.85510000
H       -0.47170000       1.98930000       0.91500000
H        0.53940000      -0.32890000      -0.85070000
H        0.49090000      -0.35110000       0.90740000
H       -2.00460000      -0.10050000       0.84410000
H       -0.88760000      -2.49230000      -0.70180000
H       -1.27540000      -2.32020000       2.07680000
