21
Properties=species:S:1:pos:R:3 gdb_68927=T pbc="F F F"
C        0.02410000       1.53780000      -0.00930000
C        0.01890000       0.02240000       0.01690000
C        1.34760000      -0.69220000      -0.20060000
C        0.70640000      -0.68840000       1.16110000
O        1.25260000       0.11720000       2.17190000
C        0.08930000      -1.97180000       1.69300000
O       -0.70150000      -2.63600000       0.72810000
C       -1.75330000      -1.79740000       0.27370000
C       -1.23180000      -0.63740000      -0.57960000
H        0.92730000       1.94070000       0.45210000
H       -0.03390000       1.90410000      -1.04100000
H       -0.83640000       1.94260000       0.53610000
H        1.34120000      -1.62200000      -0.76120000
H        2.22810000      -0.07200000      -0.33590000
H        2.11070000      -0.24960000       2.41150000
H        0.86920000      -2.68090000       1.99620000
H       -0.50990000      -1.72190000       2.58490000
H       -2.43130000      -2.43480000      -0.30130000
H       -2.31100000      -1.40790000       1.14160000
H       -2.02990000       0.10750000      -0.67720000
H       -1.01090000      -0.99360000      -1.59260000
