22
Properties=species:S:1:pos:R:3 gdb_22180=T pbc="F F F"
C       -0.77400000       1.23230000      -0.03320000
C        0.13960000       0.01780000      -0.10710000
C        1.53200000       0.18030000      -0.79720000
C        2.12380000      -0.59940000       0.35400000
N        3.20460000      -1.21630000       0.58460000
O        4.11150000      -1.07110000      -0.48660000
C        0.85680000      -0.52790000       1.19840000
C        0.98540000       0.49760000       2.33350000
C        0.33180000      -1.86220000       1.72750000
H       -0.26510000       2.10300000       0.39240000
H       -1.12010000       1.51120000      -1.03450000
H       -1.66130000       1.03200000       0.57740000
H       -0.40230000      -0.81190000      -0.57310000
H        1.66440000      -0.25320000      -1.79150000
H        1.88230000       1.21860000      -0.82950000
H        4.86070000      -1.59740000      -0.18780000
H        1.39400000       1.45070000       1.98500000
H        0.01170000       0.69480000       2.79530000
H        1.65800000       0.11420000       3.10700000
H        0.99620000      -2.26400000       2.49900000
H       -0.66430000      -1.73820000       2.16820000
H        0.26160000      -2.60610000       0.92810000
