20
Properties=species:S:1:pos:R:3 gdb_41917=T pbc="F F F"
C        0.05670000       1.56170000      -0.15570000
O        1.34820000       2.13730000      -0.02740000
C        2.23250000       1.45550000       0.85660000
C        1.69700000       1.34450000       2.29270000
C        0.56190000       0.29080000       2.45380000
N        0.26380000      -0.57540000       1.30620000
C       -0.00590000       0.05290000       0.00970000
C        1.24880000      -0.72470000       0.23340000
C        2.54140000       0.06130000       0.30310000
H       -0.63990000       2.03370000       0.55860000
H       -0.29520000       1.82450000      -1.15950000
H        3.13500000       2.07360000       0.85960000
H        2.54260000       1.07260000       2.93400000
H        1.35750000       2.33070000       2.62370000
H        0.79870000      -0.37450000       3.29030000
H       -0.37750000       0.78740000       2.71980000
H       -0.83270000      -0.40550000      -0.53120000
H        1.32540000      -1.73530000      -0.16480000
H        2.98380000       0.14590000      -0.69520000
H        3.26880000      -0.44960000       0.94630000
