16
Properties=species:S:1:pos:R:3 gdb_54888=T pbc="F F F"
N        0.52390000       0.29330000       0.94470000
C       -0.05450000       0.33040000      -0.28460000
O        0.33070000       1.01810000      -1.20780000
C       -1.32650000      -0.53800000      -0.40210000
C       -1.78840000      -0.77780000      -1.81310000
C       -2.01530000      -2.06770000      -2.06240000
C       -1.73810000      -2.94700000      -0.87230000
C       -1.20620000      -1.96200000       0.17180000
O       -0.75420000      -2.24860000       1.25470000
H        1.40790000       0.76510000       1.05210000
H        0.28450000      -0.45930000       1.57670000
H       -2.08930000      -0.01690000       0.19820000
H       -1.89380000       0.03560000      -2.51760000
H       -2.35720000      -2.46590000      -3.01020000
H       -2.63120000      -3.45070000      -0.47760000
H       -1.00090000      -3.73870000      -1.05600000
