16
Properties=species:S:1:pos:R:3 gdb_98062=T pbc="F F F"
C        0.08420000       1.34560000       0.38070000
N       -0.32570000       0.11480000      -0.26190000
C       -1.21450000      -0.73970000       0.27040000
O       -1.78140000      -0.58710000       1.34780000
C       -1.44730000      -1.96210000      -0.66930000
O       -0.81870000      -2.02090000      -1.69700000
C       -2.47160000      -3.03280000      -0.29480000
N       -2.79440000      -3.09970000       1.03560000
N       -2.87050000      -3.77200000      -1.25920000
H        1.16200000       1.34590000       0.57460000
H       -0.15970000       2.21250000      -0.24220000
H       -0.45030000       1.42340000       1.32820000
H        0.05130000      -0.15820000      -1.15930000
H       -2.63340000      -2.26020000       1.58290000
H       -3.58010000      -3.67860000       1.28900000
H       -3.56020000      -4.45370000      -0.93320000
