14
Properties=species:S:1:pos:R:3 gdb_131285=T pbc="F F F"
O       -0.18530000       1.33840000      -0.20290000
C       -0.05550000       0.00910000      -0.14880000
N       -0.04400000      -0.83500000      -1.15620000
C        0.11490000      -2.03220000      -0.51610000
N        0.19790000      -1.97250000       0.79720000
N        0.08200000      -0.62370000       1.03290000
C        0.13840000      -0.09510000       2.37210000
C        1.49720000      -0.33010000       3.03390000
O        1.67930000      -0.16720000       4.20830000
H       -0.27600000       1.57490000      -1.13490000
H        0.16960000      -2.97260000      -1.04390000
H       -0.04470000       0.98270000       2.32260000
H       -0.64030000      -0.54350000       2.99600000
H        2.30220000      -0.65030000       2.33810000
