21
Properties=species:S:1:pos:R:3 gdb_111064=T pbc="F F F"
C       -0.02600000       1.38670000      -0.37150000
O       -0.07010000       0.16680000       0.33780000
C       -1.28940000      -0.50850000       0.20650000
C       -1.55740000      -1.39860000      -1.05050000
C       -0.45620000      -2.37020000      -0.53430000
C       -1.32160000      -1.97950000       0.71770000
C       -2.57500000      -2.17230000      -0.16370000
O       -1.23270000      -2.43740000       2.00920000
C        0.01900000      -2.18430000       2.63100000
H        0.94210000       1.84880000      -0.16440000
H       -0.12320000       1.23370000      -1.45620000
H       -0.82390000       2.07220000      -0.04690000
H       -2.12790000       0.13120000       0.51990000
H       -1.71090000      -1.06750000      -2.07430000
H       -0.53750000      -3.40850000      -0.86510000
H        0.56840000      -2.00230000      -0.56450000
H       -3.48040000      -1.64070000       0.14210000
H       -2.78830000      -3.19840000      -0.46800000
H       -0.05100000      -2.57350000       3.64890000
H        0.83690000      -2.69770000       2.10690000
H        0.24390000      -1.11190000       2.66190000
