20
Properties=species:S:1:pos:R:3 gdb_96472=T pbc="F F F"
O        0.14480000       1.38770000      -0.12370000
C        0.02640000      -0.02280000      -0.05570000
C        0.81300000      -0.54250000       1.16230000
O        0.55390000       0.25150000       2.31120000
C       -0.71530000       0.05680000       2.93230000
C       -1.88820000       0.66230000       2.16050000
N       -2.33610000      -0.20800000       1.07370000
C       -2.57670000       0.37790000      -0.24520000
C       -1.41550000      -0.52070000      -0.02140000
H        0.37840000       1.67680000       0.76910000
H        0.48510000      -0.43820000      -0.96450000
H        0.58100000      -1.60090000       1.35140000
H        1.88800000      -0.44550000       0.98110000
H       -0.89530000      -1.01600000       3.09620000
H       -0.63060000       0.54500000       3.90800000
H       -2.73220000       0.78220000       2.85230000
H       -1.60410000       1.67090000       1.82460000
H       -3.46150000       0.02550000      -0.76930000
H       -2.34060000       1.43100000      -0.37890000
H       -1.49270000      -1.55870000      -0.34870000
