21
Properties=species:S:1:pos:R:3 gdb_119735=T pbc="F F F"
C       -0.11930000       1.37000000       0.07610000
O       -0.00090000      -0.03160000       0.02410000
C        0.62130000      -0.57730000       1.17010000
C        0.68460000      -2.07050000       0.99690000
C       -0.63370000      -2.89270000       1.09710000
C        0.03260000      -3.84430000       2.14100000
C        1.35690000      -3.06140000       1.99510000
O        2.21150000      -3.58580000       0.95990000
C        1.69160000      -2.64860000      -0.01450000
H        0.86410000       1.86130000       0.14910000
H       -0.60750000       1.69250000      -0.84670000
H       -0.72840000       1.69710000       0.93400000
H        1.63650000      -0.15990000       1.29360000
H        0.05060000      -0.31620000       2.07910000
H       -1.46900000      -2.31470000       1.49940000
H       -0.95970000      -3.35510000       0.16250000
H       -0.40910000      -3.77190000       3.13890000
H        0.11490000      -4.89780000       1.86560000
H        1.91520000      -2.78320000       2.89450000
H        1.27210000      -3.14940000      -0.89530000
H        2.46540000      -1.94070000      -0.34000000
