18
Properties=species:S:1:pos:R:3 gdb_98772=T pbc="F F F"
C       -0.26770000       1.41140000      -0.56980000
O       -0.32160000      -0.02130000      -0.52960000
C       -0.99550000      -0.54570000       0.51270000
O       -1.50960000       0.12020000       1.37920000
C       -1.05040000      -2.05130000       0.42260000
C       -1.39710000      -2.85710000       1.69970000
N       -2.59050000      -3.51280000       1.04870000
C       -3.50430000      -2.40610000       0.70810000
C       -2.34150000      -2.64580000      -0.16860000
H        0.30470000       1.66190000      -1.46280000
H       -1.27420000       1.83330000      -0.62850000
H        0.22470000       1.80300000       0.32380000
H       -0.16490000      -2.42450000      -0.09200000
H       -0.64760000      -3.60720000       1.95610000
H       -1.64560000      -2.26130000       2.58150000
H       -4.46850000      -2.75410000       0.35090000
H       -3.53310000      -1.52460000       1.34280000
H       -2.42930000      -3.03030000      -1.17930000
