19
Properties=species:S:1:pos:R:3 gdb_93295=T pbc="F F F"
C        0.43370000       1.44250000      -0.38130000
C       -0.10770000       0.11370000       0.14630000
O       -0.02930000      -0.90470000      -0.87290000
C        1.17080000      -1.63880000      -0.72880000
C        1.58370000      -1.49790000       0.73550000
O        2.45820000      -2.10320000       1.30480000
C        0.67500000      -0.46340000       1.31760000
C        1.11580000       0.28030000       2.55530000
C        0.07010000      -0.77890000       2.67880000
H        1.50300000       1.37430000      -0.60680000
H       -0.09580000       1.72130000      -1.29620000
H        0.29510000       2.24100000       0.35460000
H       -1.17250000       0.21920000       0.38000000
H        0.99480000      -2.68590000      -0.99460000
H        1.97990000      -1.25720000      -1.37290000
H        2.11360000       0.05020000       2.91410000
H        0.81480000       1.31810000       2.64750000
H       -0.96060000      -0.47900000       2.83660000
H        0.35450000      -1.72550000       3.12520000
