16
Properties=species:S:1:pos:R:3 gdb_123724=T pbc="F F F"
C       -0.00380000       1.51460000      -0.12690000
C        1.38290000       2.06500000       0.10240000
C        2.47210000       1.33680000       0.34640000
C        2.51630000      -0.16850000       0.43750000
C        1.15750000      -0.75750000       0.21690000
N        0.90420000      -2.04320000       0.24170000
O       -0.46260000      -2.15240000      -0.00710000
C       -0.97650000      -0.92320000      -0.17190000
C       -0.00780000       0.01970000      -0.04410000
H       -0.69520000       1.95180000       0.60770000
H       -0.37380000       1.85600000      -1.10440000
H        1.47100000       3.14740000       0.05930000
H        3.42200000       1.84330000       0.49630000
H        3.22700000      -0.57110000      -0.29670000
H        2.90820000      -0.47700000       1.41590000
H       -2.03630000      -0.88300000      -0.37190000
