20
Properties=species:S:1:pos:R:3 gdb_117799=T pbc="F F F"
C        0.14500000       0.97100000      -0.53550000
O       -0.19000000       0.13970000       0.56450000
C       -1.36970000      -0.60890000       0.41160000
C       -1.08030000      -2.11420000       0.17580000
C       -0.24210000      -2.68560000       1.32880000
O       -2.37040000      -2.68990000       0.07100000
C       -2.43140000      -4.08360000      -0.18780000
C       -0.34500000      -2.28220000      -1.10480000
N        0.20730000      -2.43080000      -2.10950000
H        1.06760000       1.48970000      -0.26540000
H        0.31610000       0.39470000      -1.45250000
H       -0.63950000       1.71800000      -0.72280000
H       -1.95080000      -0.54640000       1.33920000
H       -1.99580000      -0.23950000      -0.40890000
H       -0.84430000      -2.66750000       2.24180000
H        0.08210000      -3.70970000       1.13380000
H        0.64080000      -2.05980000       1.47220000
H       -2.04420000      -4.67730000       0.64970000
H       -3.48820000      -4.31950000      -0.32720000
H       -1.88240000      -4.35010000      -1.10030000
