17
Properties=species:S:1:pos:R:3 gdb_126674=T pbc="F F F"
C        0.03050000       1.48130000       0.00830000
C       -0.05430000      -0.04750000       0.00250000
C       -1.49400000      -0.53170000       0.01360000
O       -1.46690000      -1.97220000       0.00720000
C       -2.64370000      -2.57930000       0.01510000
N       -2.74180000      -3.90640000       0.01010000
N       -4.06670000      -4.03820000       0.02140000
N       -4.74840000      -2.91130000       0.03270000
N       -3.84920000      -1.95390000       0.02890000
H        1.07230000       1.81270000       0.00020000
H       -0.46290000       1.91240000      -0.86950000
H       -0.44680000       1.90480000       0.89860000
H        0.44760000      -0.45380000      -0.88280000
H        0.46370000      -0.46130000       0.87500000
H       -2.03110000      -0.18550000       0.90420000
H       -2.04730000      -0.17800000      -0.86410000
H       -4.51970000      -4.93960000       0.02140000
