21
Properties=species:S:1:pos:R:3 gdb_121309=T pbc="F F F"
C       -0.09530000       1.60060000       0.24350000
C        0.02280000       0.08710000       0.04650000
C        0.73020000      -0.60430000       1.21780000
C        0.84640000      -2.13860000       1.07080000
C        1.62800000      -2.81650000       2.20730000
C        0.51650000      -3.21670000       3.19000000
O       -0.66180000      -3.40210000       2.38960000
C       -0.53070000      -2.79960000       1.17540000
O       -1.41480000      -2.80900000       0.36680000
H        0.88930000       2.06880000       0.35700000
H       -0.59120000       2.07250000      -0.61010000
H       -0.67950000       1.83950000       1.13930000
H       -0.96920000      -0.35360000      -0.09190000
H        0.57830000      -0.12260000      -0.87710000
H        1.74610000      -0.20080000       1.32080000
H        0.21160000      -0.36290000       2.15620000
H        1.26110000      -2.36640000       0.08520000
H        2.14140000      -3.70980000       1.83970000
H        2.37370000      -2.16550000       2.66980000
H        0.71250000      -4.15230000       3.71800000
H        0.31460000      -2.43490000       3.93140000
