19
Properties=species:S:1:pos:R:3 gdb_41139=T pbc="F F F"
C        0.05520000       1.54310000       0.07340000
O        1.50080000       1.47870000      -0.03060000
C        1.47130000       0.04350000      -0.01440000
C        2.42420000      -0.73110000      -0.84700000
C        2.88930000      -1.79110000      -0.18040000
C        2.34790000      -1.90600000       1.23220000
C        1.46660000      -0.64610000       1.38960000
C       -0.08730000      -0.78260000       1.29650000
C       -0.09160000       0.01070000      -0.03420000
H       -0.27220000       1.98760000       1.02270000
H       -0.37330000       2.11730000      -0.75590000
H        2.66540000      -0.46650000      -1.87000000
H        3.57100000      -2.52870000      -0.59190000
H        1.76380000      -2.82820000       1.35470000
H        3.15850000      -1.96300000       1.96930000
H        1.81130000       0.00730000       2.19310000
H       -0.41430000      -1.81840000       1.16530000
H       -0.66070000      -0.34450000       2.11880000
H       -0.68330000      -0.36570000      -0.86860000
