18
Properties=species:S:1:pos:R:3 gdb_83604=T pbc="F F F"
C       -0.03990000       1.37740000       0.14970000
N       -0.04330000      -0.03960000      -0.11690000
C       -1.12450000      -1.02620000      -0.08390000
C       -1.56260000      -1.43810000       1.34720000
C       -0.44600000      -2.52520000       1.37950000
C        0.01250000      -2.13570000      -0.05160000
O        0.19200000      -3.20140000      -0.91490000
C        0.99550000      -0.94270000      -0.09130000
O        2.19310000      -0.80190000      -0.09950000
H        1.00150000       1.70470000       0.20030000
H       -0.54830000       1.93440000      -0.64520000
H       -0.53030000       1.60980000       1.10370000
H       -1.86970000      -0.92770000      -0.87470000
H       -1.48470000      -0.64440000       2.09400000
H       -2.57110000      -1.85510000       1.38870000
H        0.31380000      -2.45350000       2.16040000
H       -0.84810000      -3.54060000       1.37310000
H        0.78110000      -2.92960000      -1.62720000
