18
Properties=species:S:1:pos:R:3 gdb_125985=T pbc="F F F"
C       -0.35710000       1.54230000      -0.01470000
C        0.03840000       0.07250000       0.04670000
C        0.74990000      -0.53840000      -1.24440000
N        1.90570000      -0.75970000      -0.35870000
N        3.12350000      -1.30160000      -0.12250000
C        3.21880000      -1.07580000       1.19770000
C        4.43400000      -1.46690000       1.97070000
N        2.13410000      -0.45790000       1.79530000
C        1.34710000      -0.29440000       0.74950000
H        0.47790000       2.16160000      -0.35660000
H       -1.19960000       1.69020000      -0.69770000
H       -0.65780000       1.89880000       0.97460000
H       -0.80530000      -0.54450000       0.36990000
H        0.30760000      -1.45840000      -1.63390000
H        0.94010000       0.16830000      -2.05630000
H        4.92580000      -0.58520000       2.39410000
H        4.16450000      -2.12020000       2.80620000
H        5.14000000      -1.98760000       1.32190000
