15
Properties=species:S:1:pos:R:3 gdb_44765=T pbc="F F F"
O        0.02240000       0.04840000      -0.05250000
C        0.01040000       1.24130000      -0.00940000
C       -1.17080000       2.23880000       0.04150000
N       -0.45650000       3.54190000       0.07950000
C        0.60390000       3.30850000      -0.97350000
C        1.19130000       2.24000000       0.01170000
C        0.62990000       3.23430000       1.08590000
C        2.53670000       1.73420000      -0.02350000
N        3.62830000       1.35440000      -0.05100000
H       -1.80920000       2.15940000      -0.84220000
H       -1.78680000       2.09530000       0.93310000
H        0.23980000       2.97330000      -1.94720000
H        1.24570000       4.18430000      -1.07910000
H        1.27500000       4.10080000       1.23800000
H        0.29020000       2.82940000       2.04180000
