21
Properties=species:S:1:pos:R:3 gdb_69365=T pbc="F F F"
C       -0.15570000       1.57260000      -0.11100000
C       -0.12740000       0.08200000       0.03660000
C       -1.34950000      -0.85460000       0.02020000
C       -0.61660000      -1.78900000       1.03900000
C        0.57620000      -0.81930000       1.01330000
N        1.07790000      -0.65300000      -0.34760000
N       -1.28600000      -1.82230000       2.32520000
C       -2.19350000      -2.94360000       2.55280000
C       -0.87370000      -2.88430000       3.23900000
H        0.83340000       1.99300000       0.08870000
H       -0.44360000       1.86050000      -1.12940000
H       -0.87590000       2.02210000       0.58080000
H       -2.23420000      -0.41500000       0.48640000
H       -1.62190000      -1.27580000      -0.95400000
H       -0.37870000      -2.80390000       0.66850000
H        1.23390000      -0.59510000       1.84610000
H        0.88590000      -1.46110000      -0.93870000
H       -3.10760000      -2.71090000       3.09100000
H       -2.30630000      -3.67780000       1.75660000
H       -0.10680000      -3.57980000       2.90150000
H       -0.80750000      -2.60680000       4.28690000
