13
Properties=species:S:1:pos:R:3 gdb_2527=T pbc="F F F"
O        0.33420000       1.27960000      -0.05410000
C        0.02220000      -0.09090000       0.14190000
C       -1.48330000      -0.34230000       0.05840000
C       -2.09220000       0.15530000      -1.25420000
O       -3.27830000       0.22330000      -1.44380000
C       -1.85790000      -1.81210000       0.23690000
O       -1.05790000      -2.67960000       0.46830000
H        0.04900000       1.76990000       0.72360000
H        0.53010000      -0.63510000      -0.66050000
H        0.41890000      -0.48020000       1.08720000
H       -2.02120000       0.19550000       0.85440000
H       -1.35430000       0.42150000      -2.03920000
H       -2.94290000      -2.01810000       0.12870000
