17
Properties=species:S:1:pos:R:3 gdb_80258=T pbc="F F F"
O       -0.06790000       1.41240000       0.03080000
C        0.00410000       0.00640000      -0.02800000
C       -1.37780000      -0.60510000      -0.38170000
C       -1.62490000       0.02050000      -1.78260000
C       -0.21080000      -0.01220000      -2.39530000
O        0.11820000       0.32960000      -3.49810000
C        0.70900000      -0.58140000      -1.28410000
C        0.27380000      -2.03260000      -1.15190000
C       -0.95000000      -2.04710000      -0.60950000
H        0.82140000       1.76160000       0.14580000
H        0.41270000      -0.42490000       0.89490000
H       -2.17130000      -0.43580000       0.34550000
H       -2.34340000      -0.53030000      -2.39210000
H       -1.94600000       1.06340000      -1.71740000
H        1.76890000      -0.38470000      -1.43900000
H        0.85150000      -2.87380000      -1.51130000
H       -1.57540000      -2.91180000      -0.42850000
