17
Properties=species:S:1:pos:R:3 gdb_30896=T pbc="F F F"
N        0.10260000       1.35420000       0.25160000
C       -0.04030000      -0.01600000       0.09050000
C       -1.12960000      -0.83210000      -0.02020000
C       -0.60570000      -2.17080000      -0.05700000
N       -1.34710000      -3.35480000      -0.09890000
C        0.75330000      -2.07060000       0.02420000
C        1.83110000      -3.09020000       0.02500000
O        1.63650000      -4.07950000      -0.99760000
O        1.10390000      -0.72340000       0.11700000
H        0.96970000       1.70410000      -0.13560000
H       -0.68710000       1.87740000      -0.09970000
H       -2.16440000      -0.53080000      -0.06250000
H       -2.20430000      -3.27070000      -0.62870000
H       -0.79230000      -4.12810000      -0.44650000
H        2.80390000      -2.58590000      -0.07160000
H        1.86060000      -3.67520000       0.95320000
H        1.52050000      -3.59670000      -1.82400000
