19
Properties=species:S:1:pos:R:3 gdb_5967=T pbc="F F F"
C       -0.04610000       1.61400000       0.12510000
C        0.01820000       0.08950000      -0.00800000
C       -1.37580000      -0.54110000      -0.10110000
C       -1.38240000      -2.08870000      -0.03960000
C       -0.59820000      -2.74560000      -1.18190000
O       -0.79030000      -2.56620000       1.16450000
C       -2.79630000      -2.54190000      -0.09790000
N       -3.90310000      -2.87470000      -0.11510000
H        0.95720000       2.04640000       0.18230000
H       -0.55660000       2.06810000      -0.73130000
H       -0.58950000       1.91130000       1.02870000
H        0.60500000      -0.17050000      -0.89630000
H        0.54640000      -0.34080000       0.84940000
H       -1.99940000      -0.17320000       0.72530000
H       -1.88030000      -0.22490000      -1.02200000
H        0.45660000      -2.47670000      -1.09980000
H       -0.68460000      -3.83190000      -1.11520000
H       -0.97990000      -2.41800000      -2.15170000
H       -1.29460000      -2.22060000       1.91020000
