16
Properties=species:S:1:pos:R:3 gdb_51497=T pbc="F F F"
N        0.08310000       1.28480000      -0.14420000
C        0.11600000       0.01670000      -0.06840000
C        1.23370000      -1.02720000      -0.08030000
N        0.58190000      -2.33930000       0.03480000
C       -0.66820000      -2.09200000       0.10500000
N       -1.04220000      -0.75350000       0.05480000
C       -2.37890000      -0.20990000       0.09000000
C       -2.94750000      -0.12130000       1.50290000
O       -4.11970000      -0.19770000       1.75280000
H        1.01910000       1.67250000      -0.24450000
H        1.81970000      -0.97150000      -1.00480000
H        1.93040000      -0.87230000       0.75140000
H       -1.43860000      -2.85180000       0.19460000
H       -2.31340000       0.81150000      -0.30630000
H       -3.06460000      -0.78440000      -0.53950000
H       -2.17850000       0.03090000       2.29330000
