14
Properties=species:S:1:pos:R:3 gdb_31377=T pbc="F F F"
C       -0.05210000       1.37510000      -0.04990000
O        0.03250000      -0.05780000       0.04710000
C        0.66290000      -0.52470000       1.10600000
N        1.18630000       0.18370000       2.02030000
C        1.82290000      -0.47670000       3.08300000
N        2.35700000       0.19870000       4.01680000
N        1.84330000      -1.90400000       3.07070000
C        1.28590000      -2.48980000       2.10220000
O        0.65300000      -1.88860000       1.04440000
H        0.94800000       1.81150000      -0.08980000
H       -0.59870000       1.56520000      -0.97250000
H       -0.58430000       1.78220000       0.81220000
H        2.76470000      -0.45060000       4.69050000
H        1.24670000      -3.56980000       1.99980000
