18
Properties=species:S:1:pos:R:3 gdb_79676=T pbc="F F F"
C       -0.06720000       1.62730000       0.35640000
C        0.09030000       0.11040000       0.35760000
C        1.16310000      -0.72950000      -0.23780000
C        2.59970000      -0.37020000       0.16920000
C        2.76880000       0.73240000       1.14800000
N        2.32260000      -0.58330000       1.63190000
C        0.87100000      -0.82430000       1.28210000
C        0.19290000      -1.92010000       1.99000000
O       -0.91330000      -2.33400000       1.72010000
H        0.73010000       2.13220000      -0.19220000
H       -1.00950000       1.88340000      -0.13680000
H       -0.11000000       2.04070000       1.36890000
H       -0.86350000      -0.39850000       0.22100000
H        0.96290000      -1.51580000      -0.95510000
H        3.45280000      -0.85290000      -0.29570000
H        3.79440000       0.93780000       1.44470000
H        2.11410000       1.58820000       1.19680000
H        0.80430000      -2.36140000       2.80590000
