16
Properties=species:S:1:pos:R:3 gdb_56870=T pbc="F F F"
N        0.28810000       1.57510000       0.16840000
C       -0.07540000       0.16770000       0.02760000
C        0.11650000      -0.36420000      -1.34080000
N        0.25620000      -0.73960000      -2.42520000
C        0.70830000      -0.64000000       1.06250000
C        0.76950000      -2.17680000       0.95970000
C        2.25220000      -1.94560000       0.75080000
N        3.25150000      -2.67810000       0.59260000
O        2.14720000      -0.55990000       0.81590000
H        1.27980000       1.68180000      -0.02850000
H       -0.21420000       2.14160000      -0.50750000
H       -1.14040000       0.06000000       0.27120000
H        0.47680000      -0.23640000       2.05110000
H        0.50910000      -2.72670000       1.86440000
H        0.26140000      -2.61560000       0.09920000
H        4.10880000      -2.13410000       0.48600000
