18
Properties=species:S:1:pos:R:3 gdb_70546=T pbc="F F F"
C       -0.03620000       1.46360000      -0.08480000
C        0.03050000      -0.02940000       0.08240000
C       -0.83570000      -0.75150000       1.08120000
C        0.67290000      -0.69130000       1.25860000
C        1.48220000      -1.91130000       0.89870000
O        0.88410000      -2.62240000      -0.19340000
C        0.53240000      -1.93630000      -1.31770000
N        0.42100000      -2.47590000      -2.45260000
O        0.27000000      -0.61890000      -1.18870000
H        0.90040000       1.84760000      -0.50050000
H       -0.84930000       1.73660000      -0.76410000
H       -0.21270000       1.94500000       0.88050000
H       -1.45230000      -0.14690000       1.73670000
H       -1.27140000      -1.70180000       0.79460000
H        1.08830000      -0.07260000       2.04820000
H        2.50870000      -1.62570000       0.63050000
H        1.52960000      -2.63730000       1.71470000
H        0.71760000      -3.44780000      -2.39290000
