12
Properties=species:S:1:pos:R:3 gdb_127965=T pbc="F F F"
C       -0.20730000       1.45200000       0.01860000
N        0.17980000       0.05970000       0.08950000
C        0.70410000      -0.53510000      -0.87780000
O        0.99250000      -1.86610000      -0.76130000
C        1.77970000      -2.53730000      -1.66170000
O        2.06780000      -3.67230000      -1.47790000
O        2.18680000      -1.84200000      -2.73570000
N        1.64490000      -0.44470000      -3.00540000
N        0.99460000       0.07610000      -2.13200000
H        0.35260000       2.00060000       0.78330000
H       -0.04580000       1.92080000      -0.95690000
H       -1.26500000       1.52400000       0.29160000
