18
Properties=species:S:1:pos:R:3 gdb_13089=T pbc="F F F"
C       -0.12680000       1.49440000       0.14790000
C        0.06390000      -0.01800000       0.07630000
C        1.20880000      -0.47580000      -0.88110000
C        2.15170000      -0.61580000       0.34780000
C        0.89780000      -0.62280000       1.24260000
O        0.98350000       0.14690000       2.43850000
C        0.59910000      -0.41200000       3.60080000
O        0.62560000       0.17210000       4.64190000
H        0.82370000       2.01720000       0.29290000
H       -0.57510000       1.86030000      -0.78140000
H       -0.78300000       1.77290000       0.97740000
H       -0.90310000      -0.50440000      -0.08290000
H        0.99880000      -1.43610000      -1.35820000
H        1.50800000       0.23830000      -1.65120000
H        2.81380000      -1.48250000       0.40070000
H        2.73960000       0.28870000       0.51970000
H        0.57140000      -1.64070000       1.48700000
H        0.26420000      -1.46160000       3.48070000
