18
Properties=species:S:1:pos:R:3 gdb_68523=T pbc="F F F"
C       -0.04930000       1.52210000      -0.00590000
C        0.03370000       0.01140000      -0.01420000
C        0.74950000      -0.69430000      -1.19490000
C        0.44650000      -2.10560000      -0.62950000
C        0.99670000      -1.93600000       0.79220000
C        0.75860000      -0.67700000       1.16430000
C       -1.09130000      -1.98940000      -0.43650000
O       -1.91990000      -2.86640000      -0.46210000
N       -1.29580000      -0.64290000      -0.17500000
H        0.95450000       1.95570000       0.03580000
H       -0.55130000       1.89080000      -0.90500000
H       -0.60390000       1.88510000       0.86680000
H        0.27410000      -0.48050000      -2.15630000
H        1.81860000      -0.47740000      -1.23350000
H        0.75480000      -2.98820000      -1.18380000
H        1.41540000      -2.74160000       1.37990000
H        0.94940000      -0.21270000       2.12340000
H       -2.07370000      -0.38380000       0.41460000
