13
Properties=species:S:1:pos:R:3 gdb_4408=T pbc="F F F"
N        0.07210000       1.31400000       0.12180000
C       -0.04970000      -0.03280000       0.04250000
N       -1.20390000      -0.61430000       0.02440000
C       -1.16350000      -1.99120000      -0.00410000
C       -0.02650000      -2.72190000      -0.02180000
C        1.24920000      -2.05430000      -0.01250000
N        2.39050000      -2.60180000      -0.03180000
O        1.15510000      -0.63860000       0.02020000
H        0.95990000       1.73020000      -0.10140000
H       -0.76460000       1.84920000      -0.03720000
H       -2.13550000      -2.47510000      -0.01390000
H       -0.02210000      -3.80220000      -0.04590000
H        3.13510000      -1.90550000      -0.01740000
