19
Properties=species:S:1:pos:R:3 gdb_105432=T pbc="F F F"
C        0.11570000       1.29780000       0.24720000
N        0.16630000      -0.12160000      -0.08950000
C        0.67760000      -0.46960000      -1.42040000
C        2.19310000      -0.11250000      -1.65050000
C        2.89980000      -1.39410000      -1.28530000
C        2.06400000      -2.42930000      -1.23270000
C        0.64460000      -2.02930000      -1.54710000
C       -0.17790000       0.16940000      -2.43240000
N       -0.82900000       0.67080000      -3.24490000
H        1.08280000       1.82550000       0.20820000
H       -0.57300000       1.80820000      -0.43240000
H       -0.28030000       1.39780000       1.26120000
H        0.72160000      -0.62690000       0.59370000
H        2.38600000       0.16020000      -2.69580000
H        2.49350000       0.74790000      -1.04510000
H        3.97040000      -1.43960000      -1.12170000
H        2.34310000      -3.45610000      -1.02640000
H       -0.10530000      -2.43450000      -0.86140000
H        0.35880000      -2.34230000      -2.55840000
