10
Properties=species:S:1:pos:R:3 gdb_21356=T pbc="F F F"
N        0.03550000       1.32750000       0.00910000
C        1.29950000       1.87280000      -0.00010000
C        2.13090000       0.77210000      -0.01410000
O        3.38720000       0.37050000      -0.02830000
N        3.23150000      -1.19420000      -0.03580000
N        2.03290000      -1.46870000      -0.02490000
C        1.25840000      -0.33000000      -0.01160000
N       -0.03320000      -0.01140000       0.00260000
H       -0.83010000       1.84350000       0.02040000
H        1.46070000       2.93650000       0.00410000
