25
Properties=species:S:1:pos:R:3 gdb_122355=T pbc="F F F"
C        3.97320000      -0.17110000       1.48560000
O        2.97240000      -1.09280000       1.13300000
C        3.09040000      -1.55130000      -0.19670000
C        1.95970000      -2.53650000      -0.47430000
C        1.98310000      -3.04300000      -1.90260000
C        2.81340000      -4.23390000      -2.35200000
C        3.69820000      -5.03080000      -1.41590000
C        1.30040000      -4.32680000      -2.33380000
C        0.53650000      -5.21680000      -1.37490000
H        4.98180000      -0.60790000       1.40280000
H        3.94150000       0.73130000       0.85340000
H        3.80100000       0.12140000       2.52450000
H        3.04040000      -0.70180000      -0.90120000
H        4.06940000      -2.03650000      -0.35190000
H        2.03250000      -3.35310000       0.24930000
H        1.00670000      -2.03180000      -0.27180000
H        1.92310000      -2.23460000      -2.62930000
H        3.24620000      -4.13070000      -3.34470000
H        3.28210000      -5.12100000      -0.40990000
H        3.85120000      -6.04700000      -1.79660000
H        4.68560000      -4.56510000      -1.31970000
H        0.83360000      -4.27750000      -3.31510000
H        1.00170000      -5.27960000      -0.38870000
H       -0.48490000      -4.84710000      -1.22990000
H        0.46400000      -6.23760000      -1.76700000
