16
Properties=species:S:1:pos:R:3 gdb_18800=T pbc="F F F"
C       -0.03560000       1.55910000       0.08430000
C        1.52670000       1.47000000      -0.00910000
C        2.01910000       1.24610000       1.39330000
C        1.54790000       0.14180000       1.98120000
C        0.81170000      -0.75970000       1.02920000
O        1.79300000      -1.08480000      -0.02950000
C        1.30830000       0.04030000      -0.74070000
C       -0.05950000       0.03330000      -0.03760000
H       -0.45080000       2.04020000       0.97310000
H       -0.46860000       2.00690000      -0.81620000
H        2.05380000       2.25120000      -0.55640000
H        2.67160000       1.96320000       1.88000000
H        1.76160000      -0.15840000       3.00010000
H        0.38230000      -1.66240000       1.46480000
H        1.50670000       0.00710000      -1.81340000
H       -0.93440000      -0.50530000      -0.40280000
