16
Properties=species:S:1:pos:R:3 gdb_28344=T pbc="F F F"
C       -0.01980000       1.52930000       0.02910000
C       -0.05170000       0.02740000      -0.00510000
C       -1.18680000      -0.71760000      -0.15390000
C       -1.18120000      -2.13340000      -0.18120000
C        0.02550000      -2.76080000      -0.05550000
N        0.25300000      -4.10970000      -0.11990000
O        1.16030000      -2.07190000       0.10100000
C        1.21640000      -0.64610000       0.13540000
O        2.30840000      -0.16420000       0.28180000
H        0.60970000       1.93090000      -0.77260000
H       -1.02610000       1.94290000      -0.07940000
H        0.40830000       1.89590000       0.96860000
H       -2.13980000      -0.20450000      -0.25480000
H       -2.08870000      -2.70730000      -0.30730000
H       -0.53370000      -4.71080000       0.06500000
H        1.12930000      -4.41850000       0.27270000
