21
Properties=species:S:1:pos:R:3 gdb_68071=T pbc="F F F"
C       -0.05050000       1.54110000      -0.01990000
C        0.02500000       0.02560000       0.00090000
C        1.10130000      -0.69870000      -0.87650000
C        1.09970000      -1.79840000       0.20730000
O        2.33050000      -2.45900000       0.36660000
C        0.68630000      -0.69280000       1.22420000
C       -0.07280000      -2.76860000      -0.02210000
C       -1.34770000      -1.99550000      -0.26600000
C       -1.30440000      -0.66370000      -0.25830000
H        0.93020000       1.98700000       0.17310000
H       -0.40040000       1.90650000      -0.99260000
H       -0.74500000       1.91310000       0.74250000
H        0.83130000      -0.97330000      -1.89920000
H        2.05550000      -0.16440000      -0.86510000
H        2.21940000      -3.15070000       1.02830000
H        1.57330000      -0.15730000       1.57500000
H        0.04270000      -0.96120000       2.06660000
H        0.16080000      -3.42450000      -0.87210000
H       -0.18560000      -3.42880000       0.85280000
H       -2.26700000      -2.54470000      -0.44610000
H       -2.18820000      -0.05590000      -0.43160000
