18
Properties=species:S:1:pos:R:3 gdb_52126=T pbc="F F F"
N       -0.02050000       1.27840000       0.04660000
C       -0.01970000       0.01740000       0.02020000
O       -1.18740000      -0.65490000       0.01010000
C       -1.09450000      -2.07590000      -0.01990000
C       -2.46550000      -2.65790000      -0.02760000
C       -3.63560000      -2.02900000      -0.01060000
C       -4.75060000      -3.03280000      -0.02790000
O       -4.11090000      -4.30860000      -0.05660000
C       -2.69920000      -4.14790000      -0.05790000
H        0.93570000       1.62720000       0.05060000
H        0.86460000      -0.63530000       0.00360000
H       -0.53720000      -2.40090000      -0.91310000
H       -0.53140000      -2.43780000       0.85530000
H       -3.78390000      -0.95850000       0.01220000
H       -5.39640000      -2.96010000       0.86150000
H       -5.40220000      -2.92310000      -0.90920000
H       -2.26610000      -4.62130000      -0.95510000
H       -2.26030000      -4.65830000       0.81590000
