17
Properties=species:S:1:pos:R:3 gdb_9177=T pbc="F F F"
C        1.06710000       1.71510000       1.68940000
O        1.13030000       0.30930000       1.93560000
C        0.60610000      -0.46840000       0.98940000
N        0.07960000       0.00440000      -0.07100000
N        0.70800000      -1.82580000       1.30580000
C        1.24560000      -2.49110000       2.40240000
N        1.79130000      -1.96280000       3.41000000
C        2.28150000      -2.85790000       4.43530000
H        0.02990000       2.04440000       1.58740000
H        1.53630000       2.17890000       2.55750000
H        1.60570000       1.97280000       0.77390000
H       -0.27100000      -0.72550000      -0.68560000
H        0.31670000      -2.42940000       0.60260000
H        1.13130000      -3.57970000       2.27700000
H        2.11820000      -3.92670000       4.21330000
H        3.35630000      -2.69820000       4.58180000
H        1.79470000      -2.62740000       5.39030000
