25
Properties=species:S:1:pos:R:3 gdb_101719=T pbc="F F F"
C        0.26410000       1.44240000       0.39660000
C       -0.02500000      -0.01450000       0.02880000
C        0.64530000      -0.45980000      -1.27210000
C        0.42970000      -1.94760000      -1.55580000
O        0.11010000       0.36770000      -2.30740000
C        0.85380000       0.41620000      -3.48380000
C        0.49140000      -0.46850000      -4.65680000
C        0.18660000       1.01820000      -4.68500000
C       -1.24360000       1.50570000      -4.60970000
H        1.33600000       1.60400000       0.55890000
H       -0.05810000       2.11080000      -0.40530000
H       -0.25760000       1.72850000       1.31500000
H        0.30920000      -0.68150000       0.83250000
H       -1.10660000      -0.16720000      -0.07680000
H        1.72940000      -0.26450000      -1.19720000
H       -0.63950000      -2.16800000      -1.64110000
H        0.91880000      -2.25010000      -2.48460000
H        0.84260000      -2.55290000      -0.74220000
H        1.91100000       0.63550000      -3.32460000
H        1.28200000      -0.86450000      -5.28610000
H       -0.35460000      -1.13310000      -4.51730000
H        0.83570000       1.61930000      -5.31670000
H       -1.82520000       0.90030000      -3.91080000
H       -1.28840000       2.54370000      -4.26260000
H       -1.72540000       1.45870000      -5.59230000
