21
Properties=species:S:1:pos:R:3 gdb_70906=T pbc="F F F"
C       -0.01830000       1.50810000       0.02460000
C       -0.01860000      -0.00830000       0.02600000
C        0.29920000      -0.70780000      -1.34820000
C       -0.91360000      -1.60260000      -1.11170000
O       -1.70250000      -2.14860000      -2.11120000
C       -0.90900000      -2.16360000       0.30360000
C        0.39390000      -2.16660000       1.10340000
C        0.80150000      -0.67010000       1.14980000
C       -1.38960000      -0.75400000       0.03980000
H        0.99270000       1.90160000      -0.13250000
H       -0.65760000       1.90670000      -0.76990000
H       -0.38410000       1.90370000       0.97950000
H        0.11960000      -0.03050000      -2.18800000
H        1.28540000      -1.17410000      -1.46540000
H       -1.32360000      -2.99740000      -2.36530000
H       -1.65950000      -2.92800000       0.47490000
H        0.23890000      -2.57420000       2.10710000
H        1.16430000      -2.78430000       0.62800000
H        1.87820000      -0.51740000       1.01810000
H        0.52400000      -0.22840000       2.11450000
H       -2.36700000      -0.35480000       0.27730000
