11
Properties=species:S:1:pos:R:3 gdb_43613=T pbc="F F F"
O        0.08780000       0.22250000      -0.81100000
C       -0.05000000       1.21670000      -0.19220000
C       -1.18400000       2.11930000       0.28740000
C       -0.02220000       2.95470000       0.91120000
O        0.94810000       1.99800000       0.38400000
C        0.17160000       4.28740000       0.33610000
N        0.29610000       5.33300000      -0.13670000
C        0.00580000       2.99570000       2.37480000
N       -0.00210000       3.01050000       3.52890000
H       -1.74050000       2.62120000      -0.50380000
H       -1.86350000       1.66370000       1.00740000
