23
Properties=species:S:1:pos:R:3 gdb_112802=T pbc="F F F"
C        0.75320000       1.45110000      -0.33260000
C        0.12390000       0.11500000       0.05290000
C        0.56170000      -1.10750000      -0.81010000
C        1.38400000      -1.67030000       0.38520000
C        2.89220000      -1.58010000       0.20960000
O        3.25470000      -2.53180000      -0.78230000
C        0.70730000      -0.61010000       1.31350000
C        1.53790000       0.17040000       2.31580000
O        0.66350000       1.08860000       2.96430000
H        1.83660000       1.37220000      -0.47730000
H        0.32910000       1.81520000      -1.27480000
H        0.57060000       2.20270000       0.44130000
H       -0.95990000       0.24830000       0.11270000
H       -0.26830000      -1.75480000      -1.10310000
H        1.14610000      -0.87930000      -1.70590000
H        1.15100000      -2.70620000       0.64870000
H        3.18830000      -0.56460000      -0.09740000
H        3.39850000      -1.79390000       1.16550000
H        4.19920000      -2.45290000      -0.94450000
H       -0.10770000      -1.07840000       1.87440000
H        1.98950000      -0.52470000       3.04270000
H        2.36280000       0.70320000       1.81940000
H        1.18250000       1.61440000       3.58000000
