23
Properties=species:S:1:pos:R:3 gdb_114338=T pbc="F F F"
C       -0.03900000       1.46830000       0.15520000
C       -0.03640000      -0.05540000      -0.00670000
C        0.70680000      -0.54900000      -1.25050000
C        2.22650000      -0.23310000      -1.27640000
C        2.85790000      -1.31200000      -2.15490000
C        3.13690000      -2.65140000      -1.51030000
O        3.04740000      -2.81610000      -0.12440000
C        1.85940000      -2.46000000      -2.27320000
C        0.61570000      -2.08170000      -1.46960000
H        0.97720000       1.86370000       0.25660000
H       -0.49810000       1.95730000      -0.71180000
H       -0.60150000       1.77250000       1.04360000
H        0.41440000      -0.52120000       0.88040000
H       -1.07290000      -0.41550000      -0.04470000
H        0.26310000      -0.06580000      -2.13310000
H        2.43270000       0.76540000      -1.67060000
H        2.63340000      -0.26600000      -0.25720000
H        3.47730000      -1.01250000      -2.99350000
H        3.89870000      -3.27090000      -1.98470000
H        3.81380000      -2.39270000       0.27670000
H        1.73860000      -3.00820000      -3.20080000
H        0.60400000      -2.60400000      -0.50700000
H       -0.29890000      -2.35800000      -2.00210000
