19
Properties=species:S:1:pos:R:3 gdb_52532=T pbc="F F F"
C        0.32680000       1.42520000       0.30810000
C        0.13420000       0.00180000       0.09090000
C       -0.04620000      -1.17810000      -0.09070000
C       -0.23580000      -2.59900000      -0.31130000
O       -1.32340000      -3.06530000      -0.58770000
C        0.99920000      -3.45110000      -0.12440000
C        1.34060000      -3.84300000       1.35700000
C        1.66960000      -5.27360000       0.85250000
C        0.90380000      -4.95930000      -0.46070000
H        1.37570000       1.71280000       0.18150000
H       -0.27630000       2.01440000      -0.39090000
H        0.02290000       1.70350000       1.32330000
H        1.85780000      -2.96090000      -0.59290000
H        2.13070000      -3.27510000       1.85170000
H        0.44650000      -3.82650000       1.98640000
H        2.74180000      -5.40390000       0.68050000
H        1.31170000      -6.10970000       1.45720000
H       -0.13840000      -5.28400000      -0.42910000
H        1.34980000      -5.28800000      -1.40160000
