20
Properties=species:S:1:pos:R:3 gdb_80966=T pbc="F F F"
C       -0.05430000       1.56560000      -0.11980000
C        0.11410000       0.06080000      -0.02320000
N        1.35200000      -0.58990000      -0.70750000
C        2.13090000      -0.12970000       0.54110000
C        0.81980000      -0.65000000       1.17080000
C        0.41600000      -0.73010000       2.62200000
C        1.02580000      -1.82350000       0.14090000
C       -0.09590000      -2.74300000      -0.25240000
O       -0.89230000      -2.57690000      -1.14220000
H       -0.17680000       1.85100000      -1.16970000
H       -0.96580000       1.86300000       0.41010000
H        0.77280000       2.14740000       0.29240000
H       -0.80090000      -0.41630000      -0.37400000
H        3.04520000      -0.70350000       0.71840000
H        2.33960000       0.93890000       0.56450000
H        0.38290000       0.27010000       3.06790000
H       -0.57640000      -1.17930000       2.73480000
H        1.12780000      -1.33010000       3.19930000
H        1.90940000      -2.44380000       0.34120000
H       -0.13430000      -3.66080000       0.38210000
