18
Properties=species:S:1:pos:R:3 gdb_42371=T pbc="F F F"
O        0.58970000       1.10330000      -2.15670000
C        0.03010000       1.39600000      -1.13290000
C        0.85850000       1.95400000       0.05810000
C        1.14490000       0.92050000       1.04680000
N        1.36930000       0.08860000       1.81730000
C       -1.47880000       1.29210000      -0.95990000
C       -1.95430000       0.73310000       0.36690000
C       -2.23890000       1.63960000       1.54250000
C       -3.37510000       0.97240000       0.81110000
H        1.79860000       2.33260000      -0.35120000
H        0.32340000       2.77290000       0.54900000
H       -1.87720000       2.31070000      -1.08440000
H       -1.84850000       0.70310000      -1.80490000
H       -1.54280000      -0.24030000       0.61530000
H       -1.97700000       1.28730000       2.53320000
H       -2.11810000       2.71010000       1.40570000
H       -4.00530000       1.59200000       0.18140000
H       -3.89920000       0.16010000       1.30120000
