21
Properties=species:S:1:pos:R:3 gdb_70816=T pbc="F F F"
C        0.00500000       1.47810000      -0.03030000
C        0.04970000      -0.02110000      -0.09910000
C        0.61680000      -0.96180000      -1.18820000
C        0.08080000      -1.95880000      -0.13390000
C        0.08430000      -3.46020000      -0.11920000
C        0.46430000      -1.00440000       1.03970000
O       -0.85230000      -1.03680000       1.66500000
C       -1.12560000      -1.01520000       0.22310000
C       -2.54560000      -1.02960000      -0.24430000
H        1.01130000       1.90980000      -0.06430000
H       -0.56520000       1.89940000      -0.86570000
H       -0.47080000       1.79640000       0.90340000
H        0.10970000      -0.95250000      -2.15890000
H        1.70210000      -0.94180000      -1.33240000
H        1.10390000      -3.85790000      -0.16790000
H       -0.38060000      -3.82700000       0.80210000
H       -0.47240000      -3.86930000      -0.96960000
H        1.34690000      -1.00170000       1.68080000
H       -3.08720000      -0.15830000       0.13750000
H       -2.58760000      -1.00990000      -1.33830000
H       -3.05840000      -1.93170000       0.10450000
