23
Properties=species:S:1:pos:R:3 gdb_114691=T pbc="F F F"
C        0.06440000       1.51120000       0.22020000
C        0.01250000      -0.01440000       0.10380000
C       -1.40370000      -0.56340000       0.00500000
C       -1.51810000      -2.09990000      -0.10970000
C       -2.81940000      -2.42210000       0.63530000
C       -3.87150000      -3.26130000      -0.04940000
C       -2.72130000      -2.40960000       2.15200000
C       -3.13490000      -1.16830000       1.40380000
O       -2.13010000      -0.21230000       1.19620000
H        1.09620000       1.86590000       0.30290000
H       -0.38390000       1.98990000      -0.65770000
H       -0.48680000       1.84720000       1.10220000
H        0.56850000      -0.34490000      -0.78290000
H        0.49890000      -0.47490000       0.97290000
H       -1.91310000      -0.10120000      -0.85840000
H       -1.56660000      -2.41720000      -1.15570000
H       -0.65090000      -2.59280000       0.34530000
H       -3.52780000      -4.29270000      -0.19190000
H       -4.79250000      -3.30190000       0.54120000
H       -4.12530000      -2.85600000      -1.03610000
H       -3.48380000      -2.94970000       2.70550000
H       -1.73860000      -2.40030000       2.61240000
H       -4.13880000      -0.76260000       1.49580000
