19
Properties=species:S:1:pos:R:3 gdb_112777=T pbc="F F F"
C       -0.57760000       1.11640000       0.13670000
N       -0.06250000      -0.24660000       0.10920000
C        0.94800000      -0.50760000       1.10430000
C        0.47780000      -0.73350000       2.58630000
C        0.52020000      -2.25740000       2.35220000
O       -0.77060000      -2.69320000       1.98880000
C        1.44290000      -1.99760000       1.10540000
C        1.20420000      -2.84120000      -0.04900000
N        0.96450000      -3.56640000      -0.91780000
H        0.23030000       1.81580000      -0.10690000
H       -1.35250000       1.22340000      -0.62710000
H       -1.00760000       1.42640000       1.10500000
H       -0.82160000      -0.91270000       0.21650000
H        1.75070000       0.22500000       0.98010000
H        1.21540000      -0.40650000       3.32380000
H       -0.50510000      -0.34220000       2.85490000
H        0.95550000      -2.88750000       3.13720000
H       -0.69610000      -3.55180000       1.55390000
H        2.49770000      -2.04840000       1.38900000
