21
Properties=species:S:1:pos:R:3 gdb_84088=T pbc="F F F"
C        0.78330000       1.51950000       0.11660000
C        0.11720000       0.14540000      -0.00540000
C        0.65880000      -0.66240000      -1.23180000
O        1.15230000       0.11670000      -2.31420000
C        1.67680000      -1.58740000      -0.61440000
C        1.57410000      -1.65950000       0.71430000
C        2.35800000      -2.51270000       1.65990000
C        0.43890000      -0.77920000       1.21100000
O        0.70430000      -0.11860000       2.44140000
H        1.87360000       1.43980000       0.22390000
H        0.58370000       2.11760000      -0.77520000
H        0.39950000       2.05710000       0.98730000
H       -0.96220000       0.29830000      -0.09380000
H       -0.15910000      -1.23930000      -1.68240000
H        1.97800000       0.52220000      -2.02940000
H        2.36590000      -2.16000000      -1.22780000
H        3.16730000      -3.04280000       1.15130000
H        2.78370000      -1.91270000       2.47110000
H        1.70980000      -3.25640000       2.14120000
H       -0.43270000      -1.40640000       1.44090000
H        1.47800000       0.44080000       2.31580000
