21
Properties=species:S:1:pos:R:3 gdb_99710=T pbc="F F F"
C        0.22540000       1.33850000      -0.05240000
O       -0.04670000      -0.03730000       0.09750000
C        0.64030000      -0.66110000       1.17800000
C        0.00770000      -1.96200000       1.40440000
C       -0.48500000      -3.04150000       1.60410000
C       -1.09280000      -4.34300000       1.83860000
C        2.13310000      -0.81430000       0.91800000
C        3.11120000       0.24660000       1.36250000
C        3.06000000      -1.07950000       2.07470000
H        1.25280000       1.53270000      -0.38740000
H       -0.46850000       1.71550000      -0.80790000
H        0.05790000       1.89050000       0.88660000
H        0.51590000      -0.04330000       2.08750000
H       -0.35780000      -5.15030000       1.74650000
H       -1.53080000      -4.40450000       2.84100000
H       -1.89250000      -4.53900000       1.11580000
H        2.34900000      -1.33070000      -0.01230000
H        3.95980000       0.46080000       0.72200000
H        2.72120000       1.11390000       1.88560000
H        2.62730000      -1.10450000       3.06970000
H        3.87180000      -1.78250000       1.92810000
