23
Properties=species:S:1:pos:R:3 gdb_94860=T pbc="F F F"
C       -0.16250000       1.61300000      -0.13690000
C       -0.01760000       0.09260000      -0.00840000
C        0.70380000      -0.58790000      -1.23880000
C        1.61370000      -1.74280000      -0.70150000
C        1.97420000      -1.17560000       0.65100000
C        2.38790000      -1.51120000       2.11560000
C        1.90660000      -0.00920000       2.12240000
C        2.74680000       0.17460000       0.83890000
C        0.71430000      -0.49880000       1.22720000
H        0.80140000       2.12330000      -0.22170000
H       -0.74750000       1.87080000      -1.02720000
H       -0.68200000       2.03070000       0.73190000
H       -1.03670000      -0.30840000       0.03640000
H       -0.01700000      -0.94730000      -1.97940000
H        1.33010000       0.15240000      -1.74900000
H        1.04250000      -2.67270000      -0.59360000
H        2.45850000      -1.94220000      -1.36770000
H        1.76180000      -2.23050000       2.65120000
H        3.45070000      -1.67420000       2.31570000
H        1.87400000       0.64840000       2.99340000
H        3.83240000       0.09060000       0.94740000
H        2.48950000       1.00600000       0.18460000
H        0.04960000      -1.18210000       1.76730000
