21
Properties=species:S:1:pos:R:3 gdb_103572=T pbc="F F F"
C       -0.01580000       1.68980000       0.02430000
C        0.01810000       0.16110000       0.13510000
C       -1.35580000      -0.50030000      -0.00880000
O       -2.26940000      -0.05100000       0.97430000
C       -1.89640000      -0.51100000      -1.48550000
C       -1.49260000      -1.98980000      -1.54460000
O       -1.26530000      -2.75460000      -2.43870000
C       -1.32630000      -2.06790000      -0.02440000
C       -0.19220000      -2.89000000       0.56800000
H        0.99320000       2.10620000       0.09010000
H       -0.44810000       2.02020000      -0.92660000
H       -0.59750000       2.14020000       0.83670000
H        0.68870000      -0.24320000      -0.63300000
H        0.44150000      -0.12480000       1.10470000
H       -2.35840000       0.90440000       0.89400000
H       -2.98380000      -0.38900000      -1.50880000
H       -1.43870000       0.15090000      -2.22470000
H       -2.28940000      -2.38800000       0.39570000
H        0.78100000      -2.58940000       0.16950000
H       -0.16080000      -2.79730000       1.65790000
H       -0.33400000      -3.94630000       0.32150000
