18
Properties=species:S:1:pos:R:3 gdb_93564=T pbc="F F F"
C       -0.10710000       1.55350000       0.00860000
C        0.08940000       0.04200000       0.02360000
C        0.90080000      -0.51360000      -1.19010000
N        1.69290000      -1.55990000      -0.54140000
C        1.68690000      -1.27190000       0.79930000
N        0.83470000      -0.41120000       1.22030000
C        2.67930000      -1.98270000       1.68020000
N        2.48730000      -1.74550000       2.99660000
O        3.55550000      -2.68310000       1.20250000
H        0.85960000       2.06760000      -0.00150000
H       -0.67220000       1.86510000      -0.87640000
H       -0.65470000       1.87710000       0.89780000
H       -0.89770000      -0.44220000       0.05220000
H        0.26310000      -0.91760000      -1.98040000
H        1.54190000       0.26630000      -1.62860000
H        2.54630000      -1.92420000      -0.93830000
H        1.76440000      -1.09920000       3.27160000
H        3.13640000      -2.11830000       3.66810000
