21
Properties=species:S:1:pos:R:3 gdb_79933=T pbc="F F F"
C       -0.14610000       1.55690000      -0.03390000
C        0.05530000       0.05650000      -0.00120000
C        1.37420000      -0.64710000      -0.28930000
C        2.60440000       0.18850000      -0.08740000
C        2.78870000       0.41010000       1.21570000
C        3.16670000       1.46850000       2.23080000
C        1.75380000       1.18590000       2.86680000
C        1.71400000      -0.18820000       2.08480000
C        0.70160000      -0.75150000       1.10290000
H        0.76030000       2.10490000       0.22780000
H       -0.44350000       1.87450000      -1.04000000
H       -0.94040000       1.86440000       0.65540000
H       -0.79300000      -0.47810000      -0.42560000
H        1.37250000      -1.47240000      -0.99510000
H        3.13500000       0.65930000      -0.90780000
H        3.97400000       1.15890000       2.90320000
H        3.37760000       2.47720000       1.86850000
H        1.71680000       1.11810000       3.95620000
H        1.00130000       1.89430000       2.52170000
H        2.08000000      -0.98070000       2.75000000
H        0.19360000      -1.66960000       1.37650000
