18
Properties=species:S:1:pos:R:3 gdb_92295=T pbc="F F F"
O        0.40690000       1.11850000      -0.60860000
C        0.12360000      -0.13280000      -0.03640000
C        0.12920000      -0.23570000       1.51750000
C       -1.38040000      -0.59890000       1.50820000
O       -2.20020000       0.40710000       2.12910000
C       -2.50150000       1.49840000       1.38990000
N       -2.55580000       1.61360000       0.12880000
C       -2.37170000       0.39010000      -0.65580000
C       -1.37860000      -0.59410000      -0.04510000
H       -0.24560000       1.75870000      -0.29430000
H        0.79950000      -0.83720000      -0.52650000
H        0.77700000      -1.01530000       1.92550000
H        0.34830000       0.70570000       2.02800000
H       -1.65840000      -1.53320000       1.99590000
H       -2.73050000       2.34580000       2.03500000
H       -3.35320000      -0.09190000      -0.75580000
H       -2.05060000       0.67180000      -1.66270000
H       -1.51220000      -1.59060000      -0.47440000
