16
Properties=species:S:1:pos:R:3 gdb_7308=T pbc="F F F"
C        0.94430000       1.94730000      -0.03990000
C        0.20290000       0.61730000      -0.05490000
N        0.45410000      -0.08920000      -1.31570000
C       -0.39020000      -1.00550000      -1.83670000
O       -1.42340000      -1.38290000      -1.30670000
C        0.61440000      -0.26570000       1.15290000
N       -0.22930000      -1.30660000       1.37050000
O        1.59440000      -0.02230000       1.83050000
H        2.02540000       1.78390000      -0.03850000
H        0.66310000       2.55400000      -0.90520000
H        0.70410000       2.49950000       0.87070000
H       -0.87940000       0.77570000      -0.00630000
H        1.31520000       0.10570000      -1.80310000
H       -0.05170000      -1.38620000      -2.81780000
H       -0.93530000      -1.53780000       0.68160000
H        0.03160000      -1.98450000       2.06880000
