20
Properties=species:S:1:pos:R:3 gdb_111174=T pbc="F F F"
C        0.03960000       1.56830000       0.02700000
C        0.05970000       0.04430000       0.20170000
C       -1.32900000      -0.56510000       0.06760000
C       -2.02890000      -0.75170000      -1.32370000
C       -1.09510000      -1.96900000      -1.58430000
C       -1.55040000      -2.10530000      -0.10210000
C       -2.99100000      -1.77400000      -0.62520000
C       -4.00020000      -1.29190000       0.30490000
N       -4.82250000      -0.92700000       1.03190000
H        1.03580000       1.99570000       0.17430000
H       -0.29860000       1.84870000      -0.97630000
H       -0.63680000       2.04070000       0.74740000
H        0.76860000      -0.39290000      -0.50860000
H        0.44320000      -0.20150000       1.20050000
H       -1.98770000      -0.11620000       0.81900000
H       -2.33520000       0.01910000      -2.03140000
H       -1.46600000      -2.72700000      -2.27930000
H       -0.04220000      -1.76030000      -1.76500000
H       -1.30060000      -2.89770000       0.60420000
H       -3.42730000      -2.52570000      -1.28800000
