22
Properties=species:S:1:pos:R:3 gdb_57415=T pbc="F F F"
C       -0.09960000       1.53070000       0.19750000
C        0.04620000       0.00340000       0.10430000
C        0.77960000      -0.52480000       1.35800000
C       -1.34590000      -0.64180000       0.01130000
N        0.74830000      -0.29140000      -1.15460000
C        1.05600000      -1.68150000      -1.56040000
C        2.39740000      -1.15700000      -2.09150000
O        3.27410000      -1.60200000      -2.76760000
C        2.12770000       0.18670000      -1.40020000
H        0.87700000       2.02060000       0.26980000
H       -0.61090000       1.91960000      -0.68760000
H       -0.67630000       1.80900000       1.08480000
H        0.21410000      -0.27790000       2.26200000
H        0.89410000      -1.61310000       1.33330000
H        1.77380000      -0.07950000       1.46480000
H       -1.87400000      -0.28250000      -0.87640000
H       -1.27600000      -1.73280000      -0.05200000
H       -1.94270000      -0.39880000       0.89550000
H        1.20840000      -2.40210000      -0.74050000
H        0.36910000      -2.12330000      -2.29050000
H        2.21210000       1.08950000      -2.01510000
H        2.76330000       0.30850000      -0.50810000
