17
Properties=species:S:1:pos:R:3 gdb_65622=T pbc="F F F"
C        0.15510000       1.45080000      -0.07930000
C        0.04560000      -0.05880000       0.01800000
O        0.96080000      -0.75320000      -0.87820000
C        1.46750000      -1.59790000       0.17890000
C        2.75800000      -1.06510000       0.83230000
N        1.93640000      -0.15140000       1.68170000
C        0.68660000      -0.79640000       1.24330000
C       -1.33230000      -0.52210000      -0.22150000
N       -2.41420000      -0.89970000      -0.37400000
H        1.15180000       1.75130000       0.24660000
H       -0.01080000       1.76750000      -1.11240000
H       -0.59400000       1.93220000       0.55630000
H        1.37190000      -2.66010000      -0.04820000
H        3.29140000      -1.84130000       1.39480000
H        3.45660000      -0.55270000       0.16430000
H        2.11420000      -0.21550000       2.67540000
H        0.01890000      -1.19770000       2.00490000
