25
Properties=species:S:1:pos:R:3 gdb_102374=T pbc="F F F"
C       -0.09140000       1.51960000       0.19780000
C        0.06070000       0.00520000       0.03720000
C        0.73180000      -0.47500000      -1.28480000
C        0.80190000      -2.03110000      -1.23660000
C        1.44790000      -2.70890000      -2.44720000
C       -0.02780000       0.03730000      -2.54580000
C       -1.48650000      -0.41310000      -2.67470000
C        2.09940000       0.05690000      -1.33920000
C        3.22020000       0.49270000      -1.38380000
H        0.87190000       2.02540000       0.08310000
H       -0.78470000       1.94420000      -0.53480000
H       -0.48130000       1.75850000       1.19220000
H        0.65880000      -0.38560000       0.86820000
H       -0.92110000      -0.47610000       0.11570000
H        1.35760000      -2.30550000      -0.33270000
H       -0.21560000      -2.41420000      -1.09670000
H        0.85900000      -2.57140000      -3.35940000
H        2.45100000      -2.31250000      -2.63030000
H        1.53710000      -3.78620000      -2.27620000
H        0.01700000       1.13080000      -2.54880000
H        0.53080000      -0.28060000      -3.43160000
H       -1.57900000      -1.50190000      -2.73210000
H       -2.10030000      -0.06990000      -1.83640000
H       -1.92460000      -0.00070000      -3.58900000
H        4.20930000       0.87710000      -1.42260000
