19
Properties=species:S:1:pos:R:3 gdb_91613=T pbc="F F F"
O       -0.02030000       1.43140000      -0.05400000
C        0.02510000       0.01700000       0.00660000
C        0.65900000      -0.55580000       1.31850000
C       -0.50810000      -1.33030000       1.96760000
C       -1.21140000      -1.90910000       0.71270000
C       -1.42230000      -0.53600000       0.03370000
C       -2.15890000       0.21420000       1.14960000
O       -3.05800000       1.00160000       1.03470000
C       -1.55530000      -0.31260000       2.46640000
H        0.88250000       1.76200000      -0.09030000
H        0.54190000      -0.38630000      -0.87590000
H        1.49760000      -1.22200000       1.09380000
H        1.03190000       0.25580000       1.95070000
H       -0.20130000      -2.05870000       2.71970000
H       -0.57130000      -2.57970000       0.13150000
H       -2.14960000      -2.42620000       0.93510000
H       -1.93660000      -0.49570000      -0.92480000
H       -2.34740000      -0.78950000       3.05490000
H       -1.14690000       0.50650000       3.06510000
