21
Properties=species:S:1:pos:R:3 gdb_48410=T pbc="F F F"
O       -0.08420000       0.16630000       0.88610000
C        0.17750000       0.81080000      -0.10250000
C        1.23330000       1.85820000      -0.18320000
C        1.30200000       2.64510000      -1.48250000
C        0.12320000       3.57550000      -1.70240000
C        0.15740000       5.00060000      -1.20910000
C        0.22370000       4.70970000      -2.68900000
C        1.60990000       2.51180000       1.13830000
C        2.52560000       1.49350000       0.55280000
H       -0.37120000       0.63160000      -1.05590000
H        2.22940000       3.22980000      -1.50250000
H        1.37260000       1.93960000      -2.32290000
H       -0.84760000       3.08800000      -1.65000000
H       -0.75190000       5.43310000      -0.80700000
H        1.06350000       5.35010000      -0.72490000
H        1.17440000       4.85960000      -3.19110000
H       -0.64040000       4.94220000      -3.30130000
H        1.89810000       3.55590000       1.10050000
H        1.01690000       2.21830000       1.99700000
H        2.55310000       0.51340000       1.01490000
H        3.45250000       1.82070000       0.09430000
