16
Properties=species:S:1:pos:R:3 gdb_12577=T pbc="F F F"
C        0.09330000       1.50000000      -0.19760000
C       -0.02100000       0.01870000      -0.06190000
C       -1.10360000      -0.75870000       0.07410000
C       -2.55810000      -0.43170000       0.13780000
C       -0.65340000      -2.17120000       0.16810000
O       -1.31080000      -3.16660000       0.29610000
O        0.71710000      -2.19610000       0.08350000
C        1.19880000      -0.86540000      -0.06250000
H        0.70120000       1.92260000       0.61190000
H        0.59020000       1.77090000      -1.13730000
H       -0.88350000       1.98760000      -0.17800000
H       -2.74410000       0.64170000       0.05730000
H       -3.10080000      -0.94090000      -0.66570000
H       -2.99070000      -0.79100000       1.07760000
H        1.77050000      -0.78920000      -0.99710000
H        1.88220000      -0.63630000       0.76620000
