17
Properties=species:S:1:pos:R:3 gdb_55061=T pbc="F F F"
N       -0.01060000       1.03760000      -0.02960000
C       -0.08710000      -0.33910000       0.01460000
O        0.80410000      -1.07210000      -0.35620000
N       -1.29790000      -0.79220000       0.56450000
C       -2.60230000      -0.50970000      -0.02280000
C       -2.06060000      -1.90510000       0.03830000
C       -1.67510000      -2.63460000      -1.24430000
C       -0.87750000      -3.83090000      -1.00180000
C       -0.26270000      -4.84110000      -0.79220000
H        0.92260000       1.39690000      -0.15670000
H       -0.60360000       1.56450000       0.59190000
H       -3.38180000      -0.18720000       0.66290000
H       -2.61630000      -0.02320000      -0.99620000
H       -2.44850000      -2.56310000       0.81300000
H       -2.60350000      -2.92040000      -1.75730000
H       -1.13660000      -1.95600000      -1.91320000
H        0.31130000      -5.71550000      -0.61060000
