19
Properties=species:S:1:pos:R:3 gdb_36686=T pbc="F F F"
C        0.00050000      -1.24290000      -0.06390000
C       -0.00370000      -0.04430000       0.02760000
C        0.02420000       1.40950000       0.12990000
C        1.42560000       2.00410000      -0.12210000
C        1.44440000       3.52380000      -0.02000000
C        1.24180000       4.20210000       1.39260000
C        2.62120000       4.85060000       1.22390000
O        3.56840000       3.78800000       1.06100000
C        2.82160000       4.21150000      -0.08550000
H       -0.00590000      -2.30160000      -0.14130000
H       -0.68970000       1.83860000      -0.58610000
H       -0.32850000       1.71130000       1.12480000
H        2.13560000       1.58720000       0.59850000
H        1.76660000       1.69670000      -1.11800000
H        0.75880000       3.97080000      -0.74880000
H        0.41660000       4.91770000       1.40310000
H        1.15670000       3.53220000       2.25240000
H        2.99390000       5.78840000       1.61890000
H        3.38850000       4.52500000      -0.95510000
