20
Properties=species:S:1:pos:R:3 gdb_83459=T pbc="F F F"
C       -0.08690000       1.49500000       0.17150000
C        0.07720000      -0.00680000       0.27650000
C        1.30140000      -0.79850000      -0.15030000
C        2.60090000      -0.05510000       0.18910000
C        2.18040000      -0.02900000       1.69630000
C        0.88120000      -0.74260000       1.31220000
O        0.35230000      -1.78620000       2.07320000
C       -0.65520000      -1.47460000       2.92120000
N       -1.12910000      -2.36060000       3.68340000
H        0.82340000       2.03350000       0.44720000
H       -0.34500000       1.78600000      -0.85240000
H       -0.88930000       1.84900000       0.82820000
H       -0.82790000      -0.56230000       0.03560000
H        1.21260000      -1.62040000      -0.84990000
H        3.49240000      -0.66140000       0.01950000
H        2.74280000       0.91440000      -0.29650000
H        2.81670000      -0.67350000       2.30590000
H        2.08940000       0.94500000       2.18730000
H       -0.97570000      -0.42780000       2.84540000
H       -1.88140000      -1.96670000       4.24480000
