13
Properties=species:S:1:pos:R:3 gdb_3661=T pbc="F F F"
C       -0.03360000       1.51950000       0.07460000
C       -0.03360000       0.02990000      -0.03020000
C        0.00590000      -0.77200000      -1.15520000
N       -0.00330000      -0.49520000      -2.52180000
N       -0.02740000      -2.03300000      -0.66070000
N       -0.07050000      -2.03210000       0.69660000
N       -0.08270000      -0.78780000       1.06400000
H        0.65550000       1.97730000      -0.64520000
H       -1.02630000       1.95240000      -0.09910000
H        0.28350000       1.81310000       1.07780000
H        0.04350000       0.49940000      -2.70050000
H        0.73510000      -0.96000000      -3.03780000
H       -0.04880000      -2.90670000      -1.16110000
