19
Properties=species:S:1:pos:R:3 gdb_105433=T pbc="F F F"
C       -0.11210000       1.39570000       0.04460000
O        0.04080000      -0.00830000      -0.00180000
C        0.69370000      -0.54960000      -1.15370000
C        2.23420000      -0.26390000      -1.11290000
C        2.81350000      -1.51420000      -0.50370000
C        1.92360000      -2.50020000      -0.43340000
C        0.57950000      -2.09640000      -0.97780000
C        0.06690000      -0.08050000      -2.39490000
C       -0.44410000       0.30220000      -3.41400000
H        0.85010000       1.92740000       0.05780000
H       -0.70410000       1.76920000      -0.80030000
H       -0.63840000       1.61340000       0.97700000
H        2.62890000      -0.08560000      -2.12050000
H        2.44510000       0.63850000      -0.53040000
H        3.84900000      -1.57700000      -0.18880000
H        2.11780000      -3.49750000      -0.05520000
H       -0.25510000      -2.31050000      -0.30360000
H        0.36420000      -2.58920000      -1.93290000
H       -0.89560000       0.63490000      -4.31600000
