13
Properties=species:S:1:pos:R:3 gdb_18427=T pbc="F F F"
O       -0.23770000       0.31140000       0.66890000
C        0.11160000       1.13790000      -0.13660000
C        1.30230000       2.02640000       0.01590000
C        1.49720000       2.89260000       1.21170000
C        0.97580000       2.28090000       2.51000000
C        1.89290000       1.09590000       2.16190000
O        2.27840000       0.11670000       2.70600000
N        2.43240000       1.72530000       0.93600000
H       -0.46190000       1.31360000      -1.07180000
H        1.65910000       2.44460000      -0.92280000
H        1.85320000       3.91000000       1.10110000
H        1.32510000       2.80990000       3.40030000
H       -0.09010000       2.07120000       2.59930000
