14
Properties=species:S:1:pos:R:3 gdb_10589=T pbc="F F F"
C        0.14250000       1.53450000       0.02650000
C        0.04210000       0.03680000       0.11670000
O        1.20160000      -0.72790000      -0.15030000
C        0.69180000      -0.79940000       1.18700000
C        1.52580000      -0.13020000       2.25680000
O        2.37210000       0.69500000       2.03920000
C        0.08150000      -2.04210000       1.58850000
C       -0.41110000      -3.06960000       1.97110000
H        1.06770000       1.89550000       0.47550000
H        0.12520000       1.83110000      -1.02770000
H       -0.71530000       2.00280000       0.51990000
H       -0.87440000      -0.40200000      -0.28300000
H        1.27610000      -0.46780000       3.28450000
H       -0.84880000      -3.98250000       2.29330000
