15
Properties=species:S:1:pos:R:3 gdb_49538=T pbc="F F F"
O       -0.07640000      -0.05000000      -0.39760000
C       -0.05730000       1.11660000      -0.09160000
C        1.22300000       1.91040000      -0.04710000
C        1.22390000       3.36610000      -0.61410000
N        0.34050000       3.75060000       0.55290000
C        1.44980000       2.90340000       1.13750000
C        2.49300000       3.67080000       0.25420000
C        3.78080000       3.07660000      -0.06890000
N        4.80700000       2.60950000      -0.32470000
H       -0.97750000       1.66960000       0.17360000
H        2.07020000       1.28230000      -0.32230000
H        1.02580000       3.69140000      -1.63510000
H        0.48580000       4.73550000       0.79440000
H        1.52060000       2.67790000       2.20130000
H        2.61030000       4.72580000       0.51780000
