23
Properties=species:S:1:pos:R:3 gdb_96553=T pbc="F F F"
C        0.04270000       1.57230000      -0.12450000
C        0.02480000       0.04270000      -0.00180000
C        0.61690000      -0.55900000      -1.29950000
O        1.15500000      -1.86560000      -1.17600000
C        2.52580000      -1.88670000      -0.82150000
C        2.75760000      -1.63250000       0.66720000
O        2.16700000      -0.43060000       1.12000000
C        0.74320000      -0.49720000       1.25470000
C        0.37050000       0.23180000       2.54220000
H        1.06980000       1.94810000      -0.06440000
H       -0.37350000       1.88790000      -1.08770000
H       -0.54530000       2.05640000       0.65930000
H       -1.01910000      -0.28820000       0.08610000
H       -0.16990000      -0.61910000      -2.05980000
H        1.39290000       0.11800000      -1.68700000
H        2.90870000      -2.88000000      -1.08540000
H        3.07730000      -1.14020000      -1.41440000
H        2.37360000      -2.48530000       1.24910000
H        3.83440000      -1.55130000       0.85890000
H        0.45650000      -1.55270000       1.35640000
H        0.74850000       1.25760000       2.53440000
H       -0.71580000       0.26370000       2.67520000
H        0.80920000      -0.28150000       3.40210000
