20
Properties=species:S:1:pos:R:3 gdb_118890=T pbc="F F F"
C        0.00350000       1.37230000       0.04640000
O       -0.05980000      -0.02990000      -0.06970000
C        0.69570000      -0.54070000      -1.15750000
C        0.59210000      -2.05450000      -1.07300000
O        1.03960000      -2.50100000       0.18830000
C       -0.77860000      -2.71600000      -1.50660000
C       -0.00660000      -3.50040000      -2.57180000
N        0.62340000      -2.48490000      -3.45240000
C        1.27940000      -2.86920000      -2.17600000
H        1.03610000       1.72130000       0.20290000
H       -0.39550000       1.87080000      -0.84990000
H       -0.60250000       1.65850000       0.90960000
H        0.30940000      -0.17700000      -2.11800000
H        1.75100000      -0.23410000      -1.06430000
H        0.65230000      -1.88930000       0.82830000
H       -1.14840000      -3.34400000      -0.69490000
H       -1.56820000      -2.05840000      -1.87750000
H       -0.20070000      -4.50100000      -2.93750000
H        1.11170000      -2.98790000      -4.19300000
H        2.28780000      -3.26290000      -2.14440000
