20
Properties=species:S:1:pos:R:3 gdb_75350=T pbc="F F F"
C        0.21380000       1.53730000       0.03250000
C       -0.04030000       0.05460000      -0.05640000
N        0.04510000      -0.54120000      -1.17070000
C       -0.21380000      -1.96290000      -1.38940000
C       -1.50790000      -2.48160000      -0.78280000
C       -1.52110000      -3.74710000       0.03760000
C       -1.64920000      -2.40240000       0.71620000
C       -0.48480000      -1.80740000       1.45790000
O       -0.34340000      -0.39990000       1.20090000
H        1.05080000       1.73880000       0.70890000
H        0.43450000       1.93210000      -0.95780000
H       -0.66270000       2.04500000       0.44790000
H       -0.24420000      -2.11640000      -2.47380000
H        0.63990000      -2.55780000      -1.03980000
H       -2.40080000      -2.26260000      -1.36020000
H       -2.39960000      -4.38140000       0.00180000
H       -0.58740000      -4.28970000       0.15100000
H       -2.62530000      -2.13530000       1.10940000
H       -0.61970000      -1.87180000       2.54110000
H        0.45200000      -2.31860000       1.21360000
