18
Properties=species:S:1:pos:R:3 gdb_39833=T pbc="F F F"
C       -0.08120000       1.43110000       0.01980000
C        1.30380000       0.83880000       0.02640000
C        1.95540000       0.61820000       1.38440000
N        1.10950000       1.00980000       2.53080000
C        1.18880000      -0.41370000       2.12830000
C        0.04660000      -0.86590000       1.24740000
C       -0.45830000      -2.24460000       1.29600000
O       -1.21350000      -1.17080000       1.85580000
C        0.08940000      -0.06970000      -0.03830000
H       -0.43900000       1.87850000       0.93780000
H       -0.41200000       1.90930000      -0.89570000
H        1.95570000       0.97370000      -0.82820000
H        3.03280000       0.70580000       1.46990000
H        1.69130000       1.15070000       3.35330000
H        1.64690000      -1.12480000       2.80810000
H       -0.87440000      -2.69520000       0.39490000
H       -0.04250000      -2.95330000       2.01290000
H       -0.18840000      -0.58060000      -0.95340000
