15
Properties=species:S:1:pos:R:3 gdb_49985=T pbc="F F F"
O       -0.25300000       0.12670000      -0.63710000
C       -0.08890000       1.21720000      -0.15290000
C        1.22690000       1.87960000       0.01140000
C        1.29010000       3.41910000      -0.05090000
C        1.47660000       2.72710000       1.23350000
C        0.75200000       2.81010000       2.57040000
C        2.17650000       2.74970000       3.13280000
O        2.71800000       2.75670000       4.18630000
O        2.76370000       2.67550000       1.88260000
H       -0.95240000       1.82280000       0.21370000
H        2.07810000       1.33090000      -0.37640000
H        2.16140000       3.84430000      -0.53500000
H        0.35870000       3.95150000      -0.21940000
H        0.22720000       3.74370000       2.78040000
H        0.12760000       1.95910000       2.84690000
