15
Properties=species:S:1:pos:R:3 gdb_96699=T pbc="F F F"
C       -0.44040000       1.83710000       0.21920000
N       -0.77520000       0.43120000       0.14770000
C       -0.05270000      -0.43010000       0.71510000
O       -0.50670000      -1.74340000       0.68820000
C        0.32430000      -2.68440000       0.12290000
N       -0.20290000      -3.92100000       0.33620000
O        1.35060000      -2.43210000      -0.45160000
C        1.13480000      -0.21560000       1.48770000
C        2.10690000       0.00280000       2.16150000
H        0.46730000       2.06350000       0.79130000
H       -0.32410000       2.21620000      -0.80190000
H       -1.28650000       2.37520000       0.66090000
H       -1.15610000      -4.00010000       0.64710000
H        0.18740000      -4.67290000      -0.20510000
H        2.97730000       0.17800000       2.74540000
