16
Properties=species:S:1:pos:R:3 gdb_51757=T pbc="F F F"
O       -0.24240000       0.08180000      -0.05600000
C       -0.05470000       1.27070000      -0.05150000
C        1.32000000       1.91500000      -0.07680000
C        1.47200000       2.84200000      -1.27670000
O        0.52340000       3.92980000      -1.26630000
C        1.55650000       4.92760000      -1.31550000
C        2.67300000       3.84520000      -1.30640000
C        3.57100000       3.85000000      -0.16640000
N        4.27420000       3.85770000       0.75120000
H       -0.89930000       1.99140000      -0.02780000
H        1.44510000       2.49890000       0.84410000
H        2.07980000       1.12830000      -0.10120000
H        1.39670000       2.27000000      -2.21000000
H        1.51560000       5.52440000      -2.23270000
H        1.53940000       5.58960000      -0.44440000
H        3.25570000       3.79690000      -2.22770000
