18
Properties=species:S:1:pos:R:3 gdb_108097=T pbc="F F F"
O        0.15090000       1.22850000      -0.24570000
C       -0.04170000      -0.10840000       0.19950000
C       -1.47960000      -0.52440000       0.18450000
C       -2.63970000      -0.00850000       1.03480000
C       -3.45540000      -1.18040000       0.43810000
N       -3.58420000      -0.76250000      -1.00120000
C       -2.14610000      -1.07200000      -1.12400000
C       -2.05500000      -1.91640000       0.11830000
O       -1.44570000      -3.09020000       0.47640000
H       -0.29950000       1.31500000      -1.09260000
H        0.55450000      -0.82280000      -0.39220000
H        0.35180000      -0.13550000       1.22160000
H       -2.43360000      -0.14810000       2.09940000
H       -3.03480000       0.99260000       0.84410000
H       -4.34360000      -1.58020000       0.92350000
H       -4.09610000      -1.49450000      -1.49340000
H       -1.61050000      -1.10280000      -2.06550000
H       -1.84780000      -3.81340000      -0.01880000
