23
Properties=species:S:1:pos:R:3 gdb_94840=T pbc="F F F"
O       -0.10930000       1.45590000       0.07090000
C        0.01140000       0.03990000       0.00990000
C        0.79180000      -0.52470000       1.20340000
C        0.82500000      -2.06180000       1.17330000
C       -0.58090000      -2.63600000       1.09460000
C       -0.80820000      -4.06490000       1.50930000
C       -1.30410000      -2.93780000       2.38710000
C       -1.38360000      -2.06890000      -0.06600000
C       -1.40470000      -0.53250000      -0.03400000
H        0.77630000       1.82530000       0.14830000
H        0.53410000      -0.25370000      -0.91870000
H        1.81410000      -0.12310000       1.20440000
H        0.30790000      -0.17630000       2.12440000
H        1.40240000      -2.39610000       0.29910000
H        1.34730000      -2.44780000       2.05570000
H       -1.54370000      -4.64670000       0.96270000
H        0.04420000      -4.64200000       1.85380000
H       -0.78610000      -2.75640000       3.32350000
H       -2.37390000      -2.76090000       2.43330000
H       -0.93850000      -2.40770000      -1.01280000
H       -2.40690000      -2.46010000      -0.04800000
H       -1.94170000      -0.18220000       0.85630000
H       -1.93150000      -0.13030000      -0.90540000
