18
Properties=species:S:1:pos:R:3 gdb_95194=T pbc="F F F"
O        0.32110000       1.27740000       0.42770000
C        0.09380000      -0.06490000       0.11180000
C       -1.41350000      -0.41880000       0.08450000
C       -1.60470000      -1.92670000      -0.13790000
C       -0.67010000      -2.49910000      -1.19920000
C       -0.63790000      -2.04720000      -2.62890000
N        0.43400000      -1.68680000      -1.70490000
C        0.58830000      -0.36800000      -1.29620000
O        1.01030000       0.51410000      -2.01490000
H        0.69850000       1.66440000      -0.37970000
H        0.59970000      -0.71910000       0.83850000
H       -1.87210000      -0.10770000       1.02680000
H       -1.89050000       0.17140000      -0.70740000
H       -1.38830000      -2.44910000       0.80110000
H       -2.64630000      -2.15920000      -0.38510000
H       -0.38250000      -3.53480000      -1.02880000
H       -0.37490000      -2.75010000      -3.41390000
H       -1.30530000      -1.24580000      -2.93580000
