14
Properties=species:S:1:pos:R:3 gdb_26741=T pbc="F F F"
N       -0.16330000       1.42760000      -0.04910000
C       -0.04800000       0.01950000      -0.01070000
C       -1.11550000      -0.81940000      -0.08390000
O       -2.43550000      -0.59330000      -0.20010000
N       -0.61790000      -2.11370000      -0.01540000
C       -1.34330000      -3.30620000      -0.05250000
O       -0.83200000      -4.39180000       0.01280000
C        0.76870000      -1.97180000       0.09880000
N        1.12730000      -0.72460000       0.10380000
H        0.35870000       1.81680000      -0.82970000
H        0.22100000       1.84980000       0.79200000
H       -2.53170000       0.37020000      -0.22810000
H       -2.42620000      -3.12700000      -0.14770000
H        1.40110000      -2.84150000       0.17000000
