16
Properties=species:S:1:pos:R:3 gdb_42219=T pbc="F F F"
O        0.51200000       0.43300000      -0.91100000
C        0.06710000       1.14140000      -0.04150000
C        0.86900000       1.39700000       1.18220000
N        1.48060000       1.60300000       2.14180000
C       -1.26230000       1.83550000      -0.04630000
C       -2.27070000       1.60430000      -1.20710000
C       -2.54370000       0.17740000      -0.63700000
C       -2.51400000       1.11980000       0.59960000
C       -3.37390000       2.11490000      -0.23100000
H       -1.13000000       2.86960000       0.29250000
H       -2.12120000       1.88500000      -2.24890000
H       -3.51930000      -0.25150000      -0.87730000
H       -1.74910000      -0.56040000      -0.73870000
H       -2.62520000       0.85680000       1.65150000
H       -3.33460000       3.16790000       0.05980000
H       -4.39460000       1.79410000      -0.45030000
