17
Properties=species:S:1:pos:R:3 gdb_74026=T pbc="F F F"
C       -0.01690000       1.50170000       0.01630000
C       -0.03030000       0.01390000       0.13250000
C       -1.02690000      -0.86090000       0.29400000
C       -2.41040000      -1.24290000      -0.16090000
O       -1.84340000      -2.50610000      -0.63670000
C       -0.63780000      -2.29610000       0.17990000
C        0.77310000      -2.26330000      -0.39800000
C        1.21600000      -0.79910000      -0.10240000
O        2.34180000      -0.37250000      -0.17320000
H        0.57610000       1.94010000       0.82700000
H        0.46170000       1.81420000      -0.91770000
H       -1.02380000       1.92360000       0.05980000
H       -3.15410000      -1.41300000       0.62840000
H       -2.85280000      -0.64580000      -0.96480000
H       -0.71210000      -2.90330000       1.09070000
H        1.47630000      -2.99560000       0.00280000
H        0.73430000      -2.37860000      -1.48700000
