18
Properties=species:S:1:pos:R:3 gdb_11412=T pbc="F F F"
C       -0.30350000       1.41090000      -0.08730000
C       -0.04620000      -0.09700000      -0.14010000
C        0.96600000      -0.50020000      -1.21200000
C        1.16340000      -2.02590000      -1.35820000
C        0.20430000      -2.38910000      -2.49470000
C        0.04150000      -1.08390000      -3.26730000
O       -0.42080000      -0.91760000      -4.35800000
O        0.51250000      -0.05480000      -2.51120000
H        0.61760000       1.95950000       0.13890000
H       -0.68070000       1.77330000      -1.04680000
H       -1.03720000       1.65660000       0.68560000
H        0.33610000      -0.45020000       0.82600000
H       -0.98730000      -0.63390000      -0.31800000
H        1.91410000       0.01660000      -1.03210000
H        2.19550000      -2.24580000      -1.64480000
H        0.95680000      -2.55280000      -0.42440000
H        0.55840000      -3.17640000      -3.16130000
H       -0.78430000      -2.69090000      -2.13200000
