23
Properties=species:S:1:pos:R:3 gdb_100349=T pbc="F F F"
C       -0.00360000       1.55990000       0.15660000
C       -0.05950000       0.03710000      -0.00180000
C        0.67840000      -0.54440000      -1.22660000
C        0.57940000      -2.07610000      -1.23010000
C        0.14390000       0.05510000      -2.54030000
C        0.78810000      -0.48860000      -3.81960000
O        2.08310000      -0.11950000      -1.21000000
C        2.91890000      -0.54180000      -0.25150000
O        4.06820000      -0.20710000      -0.21150000
H        1.02780000       1.92320000       0.14870000
H       -0.54690000       2.07640000      -0.63940000
H       -0.45770000       1.85530000       1.10690000
H        0.34640000      -0.43450000       0.90140000
H       -1.10350000      -0.29400000      -0.06320000
H       -0.44280000      -2.37710000      -1.47940000
H        1.25400000      -2.51150000      -1.97030000
H        0.81690000      -2.50640000      -0.25330000
H       -0.94050000      -0.10850000      -2.56450000
H        0.29900000       1.13710000      -2.50140000
H        1.87570000      -0.38820000      -3.77770000
H        0.54730000      -1.54200000      -3.99020000
H        0.43050000       0.07200000      -4.68820000
H        2.45690000      -1.21740000       0.48930000
