18
Properties=species:S:1:pos:R:3 gdb_90796=T pbc="F F F"
C       -0.13040000       1.49070000      -0.01140000
N        0.04840000       0.04860000      -0.01760000
C        0.75930000      -0.48420000      -1.19150000
C        1.47660000      -1.71540000      -0.65220000
C        1.08330000      -1.95690000       0.75610000
C        2.54170000      -1.51400000       0.43880000
C        2.26730000      -0.24460000       1.18090000
O        2.96670000       0.55750000       1.73780000
C        0.72490000      -0.50680000       1.15400000
H        0.81840000       2.05530000      -0.01970000
H       -0.71190000       1.78870000      -0.88980000
H       -0.69330000       1.78660000       0.87950000
H        0.04750000      -0.74680000      -1.98440000
H        1.47640000       0.23830000      -1.61390000
H        1.66450000      -2.55560000      -1.31100000
H        0.74980000      -2.87650000       1.21280000
H        3.45700000      -2.09290000       0.44110000
H        0.18620000      -0.30740000       2.08130000
