20
Properties=species:S:1:pos:R:3 gdb_120176=T pbc="F F F"
C       -0.20140000       1.55630000       0.05640000
C        0.04310000       0.04530000       0.02890000
C        0.68350000      -0.41810000      -1.28040000
N        0.81110000      -1.88300000      -1.30150000
C        1.98900000      -2.53250000      -0.57760000
C        1.73550000      -3.75380000      -1.49970000
C        1.60030000      -2.52370000      -2.43450000
C        2.85710000      -1.94730000      -1.72480000
O        3.80140000      -1.24830000      -1.91690000
H        0.73400000       2.11370000      -0.06250000
H       -0.87470000       1.86370000      -0.75150000
H       -0.65510000       1.86530000       1.00260000
H        0.69230000      -0.23690000       0.86750000
H       -0.89880000      -0.49650000       0.17060000
H        0.03310000      -0.15160000      -2.12300000
H        1.64030000       0.10710000      -1.43530000
H        2.09850000      -2.50060000       0.50450000
H        2.56620000      -4.43820000      -1.67560000
H        0.78570000      -4.25260000      -1.30330000
H        1.26590000      -2.47570000      -3.46940000
