18
Properties=species:S:1:pos:R:3 gdb_12379=T pbc="F F F"
C        0.06770000       1.58070000      -0.02000000
C        0.10020000       0.04950000      -0.01320000
C        0.70200000      -0.54850000      -1.29250000
C        0.85600000      -2.05900000      -1.13340000
C        1.76560000      -2.33800000       0.05130000
O        1.35490000      -1.68350000       1.26370000
C        0.74830000      -0.47010000       1.27630000
O        0.66900000       0.11820000       2.32140000
H        1.07910000       1.99190000      -0.10440000
H       -0.51750000       1.94370000      -0.87050000
H       -0.37150000       1.96010000       0.90330000
H       -0.93690000      -0.31370000       0.06010000
H        0.06750000      -0.29780000      -2.14890000
H        1.68420000      -0.09600000      -1.48680000
H       -0.12370000      -2.52500000      -0.97100000
H        1.29040000      -2.51900000      -2.02750000
H        1.80020000      -3.40190000       0.29970000
H        2.79020000      -2.01240000      -0.17370000
