13
Properties=species:S:1:pos:R:3 gdb_45933=T pbc="F F F"
N       -0.05800000       1.30380000       0.26980000
C       -0.00210000       0.08000000      -0.02850000
O        1.17320000      -0.57810000      -0.23570000
C        1.20140000      -1.77780000      -1.00280000
C        0.01490000      -2.70530000      -0.81080000
O        0.05240000      -3.87700000      -1.09470000
N       -1.12820000      -2.08280000      -0.34370000
C       -1.28910000      -0.73060000      -0.04630000
O       -2.36760000      -0.26730000       0.21080000
H        0.88000000       1.71120000       0.26810000
H        1.26970000      -1.53850000      -2.07320000
H        2.10670000      -2.31520000      -0.71860000
H       -1.96550000      -2.65180000      -0.28210000
