23
Properties=species:S:1:pos:R:3 gdb_118550=T pbc="F F F"
C       -1.64590000       0.74180000       0.13000000
C       -1.24040000      -0.68410000      -0.25390000
C        0.16160000      -0.75220000      -0.87550000
C        0.63790000      -2.16400000      -1.28820000
C        1.48080000      -2.12760000      -2.57240000
C        1.88520000      -3.50340000      -3.05860000
O        1.79100000      -3.86970000      -4.20340000
O        1.47330000      -2.77960000      -0.31360000
C        0.82900000      -3.23100000       0.85600000
H       -0.95700000       1.16280000       0.87060000
H       -1.63610000       1.40420000      -0.74270000
H       -2.65270000       0.76870000       0.55770000
H       -1.29680000      -1.32900000       0.63050000
H       -1.96690000      -1.09090000      -0.96950000
H        0.17610000      -0.10060000      -1.75800000
H        0.90950000      -0.34340000      -0.18420000
H       -0.24480000      -2.80570000      -1.45790000
H        0.95010000      -1.61660000      -3.37960000
H        2.39900000      -1.56470000      -2.35160000
H        2.28770000      -4.17130000      -2.26850000
H       -0.04520000      -3.85850000       0.62410000
H        1.55600000      -3.83190000       1.40880000
H        0.50150000      -2.40440000       1.50180000
