15
Properties=species:S:1:pos:R:3 gdb_56709=T pbc="F F F"
N       -1.43910000       1.09790000      -0.99720000
C       -0.27850000       0.45050000      -0.40320000
C       -0.67380000      -0.45980000       0.66850000
C       -0.99890000      -1.23690000       1.52410000
C        0.61850000      -0.30890000      -1.42140000
C        0.05090000      -1.00430000      -2.58740000
O        0.68130000       0.27310000      -2.72350000
C        1.89250000      -0.76120000      -0.89110000
N        2.89980000      -1.10310000      -0.43990000
H       -1.16730000       1.54950000      -1.86580000
H       -2.16710000       0.42170000      -1.19980000
H        0.35990000       1.23810000       0.02100000
H       -1.27750000      -1.91300000       2.29480000
H        0.59040000      -1.84010000      -3.02520000
H       -1.02860000      -1.00650000      -2.71890000
