23
Properties=species:S:1:pos:R:3 gdb_36977=T pbc="F F F"
C       -0.05700000       1.56300000       0.16880000
C       -0.07800000       0.06760000      -0.17540000
C       -1.47790000      -0.51840000      -0.16180000
C       -1.63200000      -2.05550000      -0.21300000
C       -2.37310000      -1.88280000       1.12730000
O       -2.08940000      -0.46950000       1.15490000
C        1.34040000       2.14380000       0.20700000
C        2.00980000       2.61290000      -1.06160000
C        1.57010000       3.61510000      -0.02080000
H       -0.65700000       2.11460000      -0.56820000
H       -0.55030000       1.70570000       1.13780000
H        0.36180000      -0.09600000      -1.16870000
H        0.54090000      -0.48650000       0.54260000
H       -2.11240000       0.00790000      -0.89140000
H       -2.21710000      -2.45630000      -1.04190000
H       -0.68610000      -2.59740000      -0.14450000
H       -3.45220000      -2.08170000       1.08950000
H       -1.95000000      -2.40400000       1.99410000
H        1.99700000       1.67390000       0.93610000
H        3.07170000       2.43390000      -1.19030000
H        1.43830000       2.56100000      -1.98330000
H        0.70640000       4.23240000      -0.24660000
H        2.33170000       4.11850000       0.56450000
