16
Properties=species:S:1:pos:R:3 gdb_5587=T pbc="F F F"
C        0.00970000       1.43210000       0.05140000
O        0.01700000       0.01850000       0.02360000
C        0.60670000      -0.55600000      -1.05800000
C        0.70090000      -1.90770000      -1.23250000
C        0.25460000      -3.06210000      -0.41520000
O        1.34560000      -2.15520000      -2.41580000
C        1.65220000      -0.96200000      -2.97690000
C        1.22690000       0.06520000      -2.19510000
H        1.02860000       1.84210000       0.05330000
H       -0.53970000       1.85090000      -0.80240000
H       -0.49320000       1.72140000       0.97590000
H       -0.45900000      -3.69580000      -0.95550000
H        1.09430000      -3.69850000      -0.11130000
H       -0.23510000      -2.68890000       0.48710000
H        2.16750000      -1.00320000      -3.92230000
H        1.33940000       1.11700000      -2.40010000
