23
Properties=species:S:1:pos:R:3 gdb_101846=T pbc="F F F"
C       -0.27860000       1.38720000       0.10980000
O        0.01870000       0.01620000      -0.00080000
C        0.75090000      -0.53140000       1.09210000
C       -0.13670000      -0.74590000       2.32120000
C        1.36530000      -1.84080000       0.59670000
C        2.32760000      -1.65380000      -0.58270000
C        2.90440000      -2.96190000      -1.06180000
C        4.28600000      -3.09120000      -1.53870000
O        3.91710000      -3.55560000      -0.23890000
H        0.63050000       1.98980000       0.26480000
H       -0.74500000       1.69260000      -0.83060000
H       -0.97840000       1.60710000       0.92920000
H        1.56590000       0.16630000       1.35610000
H       -0.95520000      -1.43240000       2.08220000
H        0.44580000      -1.17360000       3.14320000
H       -0.57020000       0.19300000       2.67700000
H        1.89630000      -2.32090000       1.42620000
H        0.54860000      -2.51500000       0.30650000
H        1.79660000      -1.16590000      -1.40730000
H        3.15170000      -0.99200000      -0.28880000
H        2.17540000      -3.68340000      -1.43800000
H        4.54550000      -3.86720000      -2.25800000
H        4.92980000      -2.21220000      -1.55550000
