20
Properties=species:S:1:pos:R:3 gdb_55151=T pbc="F F F"
C        0.26720000       0.62440000      -1.01590000
C       -0.00240000      -0.34110000       0.12310000
O        0.90170000      -0.76000000       0.80880000
C       -1.46230000      -0.71160000       0.44650000
C       -2.45920000      -0.69750000      -0.74560000
C       -2.44710000      -2.12890000      -1.24860000
N       -1.07200000      -2.65900000      -1.37500000
C       -1.88830000      -2.99810000      -0.18560000
C       -1.54760000      -2.14770000       1.02420000
H        1.30670000       0.95080000      -0.96760000
H        0.09310000       0.11530000      -1.96930000
H       -0.40020000       1.49200000      -0.97860000
H       -1.76480000       0.02970000       1.19720000
H       -3.46640000      -0.45180000      -0.38910000
H       -2.20290000       0.03150000      -1.51800000
H       -3.21250000      -2.47400000      -1.93610000
H       -1.06510000      -3.44650000      -2.01740000
H       -2.21610000      -4.02430000      -0.05680000
H       -0.60720000      -2.42180000       1.50590000
H       -2.35440000      -2.22880000       1.76130000
