22
Properties=species:S:1:pos:R:3 gdb_60842=T pbc="F F F"
C        0.00940000       1.47160000      -0.40120000
C        0.01030000       0.01570000       0.10730000
C        0.78770000      -0.08460000       1.40460000
O        0.40460000      -0.60690000       2.42140000
C       -1.37980000      -0.60530000       0.18040000
C       -2.38230000       0.10330000       1.07260000
N       -1.85520000      -1.12280000      -1.12240000
C       -1.56570000      -2.07000000      -0.02630000
C       -0.46550000      -3.08320000      -0.23620000
H        1.03140000       1.84740000      -0.51390000
H       -0.47890000       1.51590000      -1.37790000
H       -0.51960000       2.14310000       0.28140000
H        0.59950000      -0.55810000      -0.62070000
H        1.80230000       0.37780000       1.35300000
H       -2.59070000       1.11940000       0.71940000
H       -3.33130000      -0.44220000       1.08840000
H       -2.01110000       0.16490000       2.09890000
H       -2.85780000      -0.97700000      -1.21240000
H       -2.43060000      -2.47980000       0.49520000
H        0.34450000      -2.68430000      -0.85040000
H       -0.05130000      -3.40810000       0.72400000
H       -0.85860000      -3.96620000      -0.75170000
