15
Properties=species:S:1:pos:R:3 gdb_76290=T pbc="F F F"
N        0.15770000       1.29490000       0.53010000
C       -0.05690000      -0.02800000      -0.00560000
C       -1.52470000      -0.42780000      -0.16890000
O       -2.22480000       0.70780000      -0.65620000
C       -1.44860000      -1.47520000      -1.26820000
N       -2.32510000      -2.34120000      -1.51300000
O       -0.30050000      -1.27320000      -2.01450000
C        0.50170000      -0.31180000      -1.40830000
O        1.46130000       0.14160000      -1.94450000
H        1.12360000       1.56700000       0.37130000
H       -0.42760000       1.95290000       0.02460000
H        0.42010000      -0.77170000       0.65010000
H       -1.98140000      -0.83060000       0.73930000
H       -3.11730000       0.42690000      -0.88670000
H       -2.08640000      -2.89340000      -2.33900000
