19
Properties=species:S:1:pos:R:3 gdb_82890=T pbc="F F F"
C       -0.23710000       1.63280000      -0.05710000
C        0.01780000       0.13190000      -0.02560000
C        1.09880000      -0.57220000      -0.90240000
C        2.41090000       0.12900000      -0.49520000
C        2.34290000      -0.39060000       0.95100000
O        2.47480000      -1.82680000       0.73540000
C        1.14800000      -1.73280000       0.21410000
C        0.76020000      -0.56380000       1.13250000
O        0.23480000      -0.76840000       2.39790000
H        0.66350000       2.22220000       0.13760000
H       -0.63700000       1.94840000      -1.02670000
H       -0.97690000       1.90600000       0.70410000
H       -0.93350000      -0.40090000      -0.14960000
H        0.91670000      -0.79050000      -1.95210000
H        3.29880000      -0.26350000      -0.99530000
H        2.38120000       1.21400000      -0.60710000
H        2.99800000       0.00180000       1.72860000
H        0.61090000      -2.66920000       0.07620000
H        0.32610000       0.04440000       2.90660000
