14
Properties=species:S:1:pos:R:3 gdb_42999=T pbc="F F F"
O       -0.12390000       0.13100000      -0.77260000
C       -0.11010000       1.21610000      -0.26550000
C       -1.23250000       2.03050000       0.26100000
C       -1.02770000       2.58940000       1.68330000
C       -0.64600000       3.40150000       0.50160000
O        0.72250000       3.43150000       0.14160000
C        1.17140000       2.11730000      -0.13670000
C        2.07400000       1.61140000       0.90610000
N        2.76830000       1.21150000       1.73880000
H       -2.23120000       1.83670000      -0.10530000
H       -1.94250000       2.84810000       2.20380000
H       -0.24970000       2.16260000       2.30620000
H       -1.15250000       4.32090000       0.23730000
H        1.69790000       2.10970000      -1.09730000
