11
Properties=species:S:1:pos:R:3 gdb_133415=T pbc="F F F"
F       -0.02570000       0.05900000       0.00390000
C       -0.03410000       1.37560000       0.01050000
C       -1.25110000       2.06430000       0.03070000
N       -1.23150000       3.38320000       0.03720000
C       -0.01170000       3.94810000       0.02360000
C        0.00440000       5.45350000       0.03130000
O        0.99990000       6.12350000       0.02160000
N        1.15640000       3.30310000       0.00460000
N        1.13690000       1.97470000      -0.00210000
H       -2.20350000       1.54180000       0.04100000
H       -1.01860000       5.88200000       0.04740000
