23
Properties=species:S:1:pos:R:3 gdb_87159=T pbc="F F F"
C       -0.03760000       1.33260000      -0.32290000
C        0.23020000      -0.12350000      -0.00710000
C        1.63680000      -0.66900000       0.09850000
C        0.75460000      -0.61510000       1.32740000
C        1.10380000       0.37850000       2.42240000
C        0.19450000      -1.90860000       1.89440000
C       -0.10050000      -3.10430000       0.95820000
O        0.93810000      -3.90010000       1.56000000
C        1.22020000      -2.87790000       2.53710000
H        0.72660000       1.99380000       0.09440000
H       -0.04830000       1.49370000      -1.40670000
H       -1.00830000       1.65680000       0.06910000
H       -0.48200000      -0.79550000      -0.48170000
H        1.86730000      -1.63050000      -0.34910000
H        2.45370000       0.04450000       0.04460000
H        1.56050000       1.28900000       2.02810000
H        0.21330000       0.67020000       2.99240000
H        1.81720000      -0.06080000       3.12990000
H       -0.64570000      -1.67130000       2.55470000
H       -1.09200000      -3.55620000       1.09230000
H        0.06920000      -2.95390000      -0.11450000
H        2.26660000      -2.55040000       2.49510000
H        0.98860000      -3.21160000       3.55680000
