18
Properties=species:S:1:pos:R:3 gdb_85838=T pbc="F F F"
C       -0.45140000       1.37630000      -0.06800000
C       -0.02560000      -0.07690000       0.01230000
O        1.14480000      -0.37360000      -0.80700000
C        1.98940000      -0.60330000       0.33790000
C        2.76270000      -1.90910000       0.25110000
C        2.88660000       0.54490000       0.56740000
N        3.53410000       1.47530000       0.79780000
C        0.73870000      -0.53050000       1.28780000
O        0.76670000       0.26320000       2.42760000
H        0.36740000       2.05640000       0.18480000
H       -0.77860000       1.61180000      -1.08460000
H       -1.28530000       1.56300000       0.61600000
H       -0.85390000      -0.73500000      -0.27340000
H        3.45310000      -1.88970000      -0.59650000
H        3.33800000      -2.07570000       1.16660000
H        2.06060000      -2.73480000       0.11150000
H        0.44800000      -1.53100000       1.61510000
H        1.17320000       1.11350000       2.21880000
