14
Properties=species:S:1:pos:R:3 gdb_130925=T pbc="F F F"
O       -0.52440000       0.64910000      -0.63810000
C        0.19370000       0.92130000       0.28670000
C        1.37880000       1.86240000       0.19680000
C        1.50580000       2.68350000      -1.13860000
N        1.26190000       3.87350000      -0.28710000
N        1.16200000       5.20380000      -0.16890000
N        0.97890000       5.40140000       1.11850000
C        0.97570000       4.21880000       1.81270000
C        1.16490000       3.22290000       0.88110000
H        0.02510000       0.49890000       1.30100000
H        2.28890000       1.34130000       0.51150000
H        2.49100000       2.68110000      -1.60620000
H        0.71700000       2.48970000      -1.86510000
H        0.84100000       4.19790000       2.88040000
