17
Properties=species:S:1:pos:R:3 gdb_9300=T pbc="F F F"
C        0.30190000       1.01000000       0.57140000
O       -0.23710000       0.29180000      -0.53270000
C        0.58310000      -0.62050000      -1.08970000
N        0.17870000      -1.31770000      -2.05560000
C        1.04330000      -2.31110000      -2.66800000
C        2.39980000      -2.62290000      -2.03240000
C        0.19950000      -3.57810000      -2.84700000
O        0.64080000      -4.69710000      -2.83720000
H        0.53110000       0.34290000       1.41110000
H        1.20700000       1.56170000       0.28960000
H       -0.46640000       1.71980000       0.87940000
H        1.57800000      -0.66960000      -0.62930000
H        1.21490000      -1.97130000      -3.70570000
H        3.07270000      -1.76190000      -2.07340000
H        2.28600000      -2.93180000      -0.98830000
H        2.86150000      -3.45330000      -2.56990000
H       -0.87920000      -3.36550000      -3.00420000
