17
Properties=species:S:1:pos:R:3 gdb_80319=T pbc="F F F"
O       -0.01500000       1.43100000       0.04740000
C       -0.06310000       0.04130000       0.00890000
C       -1.35160000      -0.73020000       0.01570000
C       -2.61550000       0.04190000      -0.35530000
C       -2.37250000       0.48770000      -1.79610000
C       -1.20100000       0.00720000      -2.26230000
C       -0.45070000      -0.75090000      -1.23430000
C       -3.29340000       1.30220000      -2.49520000
C       -4.11080000       1.99280000      -3.05040000
H       -0.47470000       1.77040000      -0.73100000
H        0.75210000      -0.37580000       0.59200000
H       -1.43890000      -1.59940000       0.65730000
H       -3.51680000      -0.57710000      -0.28710000
H       -2.77040000       0.90640000       0.30200000
H       -0.82760000       0.17840000      -3.26490000
H        0.15300000      -1.60390000      -1.52370000
H       -4.82210000       2.60000000      -3.55300000
