18
Properties=species:S:1:pos:R:3 gdb_128358=T pbc="F F F"
C        0.06520000       1.40690000      -0.03110000
N       -0.11820000      -0.03070000       0.10310000
C        0.59350000      -0.70390000       1.06840000
N        1.24030000      -0.08410000       2.03080000
O        1.76680000      -1.11950000       2.83690000
C        1.41820000      -2.30840000       2.32360000
C        1.86830000      -3.53540000       3.02820000
C        0.67690000      -2.13390000       1.19560000
N        0.11450000      -3.14810000       0.37930000
H        1.09880000       1.68850000      -0.27650000
H       -0.60420000       1.77830000      -0.81030000
H       -0.19320000       1.89030000       0.91400000
H       -0.18250000      -0.53750000      -0.76750000
H        1.55550000      -3.52140000       4.07720000
H        1.43210000      -4.40650000       2.53520000
H        2.95970000      -3.62790000       3.01110000
H        0.58690000      -3.23770000      -0.51500000
H       -0.86880000      -2.97900000       0.19320000
