17
Properties=species:S:1:pos:R:3 gdb_77886=T pbc="F F F"
C       -0.11940000       1.29080000      -0.38040000
N       -0.06060000      -0.01770000       0.23990000
C       -1.10030000      -1.04150000       0.20710000
C       -0.97870000      -1.90060000      -1.02670000
O       -0.55110000      -1.41450000      -2.26230000
C        0.02140000      -2.13040000       0.07290000
N        0.30760000      -3.39210000       0.63420000
C        0.98340000      -0.93310000       0.07080000
O        2.16650000      -0.77570000      -0.03380000
H        0.89880000       1.68590000      -0.41810000
H       -0.51570000       1.24400000      -1.40320000
H       -0.73720000       1.97350000       0.21110000
H       -1.95650000      -1.00150000       0.86940000
H       -1.72740000      -2.69810000      -1.08470000
H       -1.30520000      -1.00600000      -2.70240000
H        0.46240000      -3.34920000       1.63490000
H       -0.40360000      -4.08420000       0.43610000
