12
Properties=species:S:1:pos:R:3 gdb_379=T pbc="F F F"
N       -0.09360000       1.47220000       0.01320000
C        0.02160000       0.01430000      -0.02040000
C        0.70080000      -0.55400000      -1.28360000
O       -0.07810000      -0.09590000      -2.37380000
C        0.72670000      -0.46730000       1.17420000
N        1.31180000      -0.85950000       2.08960000
H        0.83330000       1.88810000       0.05740000
H       -0.50130000       1.76130000      -0.87200000
H       -0.99650000      -0.39550000       0.00590000
H        1.73660000      -0.18570000      -1.33410000
H        0.72940000      -1.65230000      -1.23070000
H        0.35480000      -0.35270000      -3.19270000
