17
Properties=species:S:1:pos:R:3 gdb_56460=T pbc="F F F"
C       -0.02980000       1.63720000       1.17850000
C       -0.17170000       0.43810000       0.22410000
C        0.64010000      -0.70040000       0.65690000
C        1.30380000      -1.64150000       1.00520000
C       -1.64770000       0.05980000       0.00040000
N       -2.56020000       0.91530000       0.19130000
N       -1.82120000      -1.25440000      -0.47830000
C       -3.00500000      -1.83950000      -0.85030000
O       -4.09060000      -1.30330000      -0.85870000
H        1.01620000       1.94750000       1.23240000
H       -0.64400000       2.46300000       0.82000000
H       -0.36970000       1.36920000       2.18140000
H        0.20280000       0.74520000      -0.76470000
H        1.90240000      -2.45810000       1.32710000
H       -3.47360000       0.52990000      -0.05130000
H       -0.99920000      -1.84370000      -0.47150000
H       -2.85490000      -2.89220000      -1.15730000
