17
Properties=species:S:1:pos:R:3 gdb_38600=T pbc="F F F"
C       -0.02660000       1.52420000       0.07400000
C        1.51500000       1.49480000      -0.00730000
O        2.05290000       1.31080000       1.30840000
C        1.88500000      -0.04750000       1.58680000
C        0.48420000      -0.71570000       1.31240000
O        1.19690000      -1.87260000       0.78440000
C        2.18920000      -0.90590000       0.34440000
C        1.44690000       0.04510000      -0.62590000
C        0.01290000      -0.02040000       0.01450000
H       -0.45200000       2.01070000       0.95600000
H       -0.47680000       1.94490000      -0.82950000
H        2.05220000       2.31010000      -0.49390000
H        2.35530000      -0.31950000       2.52910000
H       -0.24530000      -0.95690000       2.08550000
H        3.15800000      -1.33030000       0.08870000
H        1.56850000      -0.07050000      -1.69930000
H       -0.78880000      -0.56780000      -0.48150000
