21
Properties=species:S:1:pos:R:3 gdb_56820=T pbc="F F F"
C       -0.38940000       0.93420000      -1.70910000
C       -0.02240000      -0.23450000      -0.81700000
C        1.40760000      -0.58990000      -0.46360000
C        2.60810000       0.19530000      -0.95360000
C        0.46810000      -0.07980000       0.61150000
C        0.61880000       1.28760000       1.27260000
N       -0.60680000       1.83420000       1.87370000
C        1.66330000       1.22060000       2.31140000
N        2.48620000       1.13090000       3.11750000
H        0.26400000       1.80010000      -1.57850000
H       -0.32850000       0.64400000      -2.76340000
H       -1.41760000       1.26560000      -1.52270000
H       -0.67750000      -1.08990000      -0.96480000
H        1.60700000      -1.65670000      -0.40160000
H        2.41090000       1.26480000      -1.05990000
H        3.45010000       0.08590000      -0.26260000
H        2.93090000      -0.17170000      -1.93370000
H        0.11330000      -0.82610000       1.31890000
H        0.96290000       2.02270000       0.53800000
H       -1.31410000       1.90390000       1.14730000
H       -0.96730000       1.17740000       2.56120000
