18
Properties=species:S:1:pos:R:3 gdb_38406=T pbc="F F F"
C        0.02190000       1.47140000       0.11150000
C        1.29630000       0.70010000      -0.00680000
O        1.67070000       0.14600000       1.25630000
C        0.48160000      -0.68070000       1.26030000
C        0.64550000      -2.23860000       1.28460000
C       -0.31800000      -2.25750000       2.47560000
N        0.36700000      -1.49500000       3.54040000
C       -0.40110000      -0.76560000       2.49700000
C       -0.01810000      -0.04050000      -0.02990000
H       -0.22350000       1.95160000       1.05480000
H       -0.29040000       2.01130000      -0.77750000
H        2.07010000       0.84950000      -0.75000000
H        0.26440000      -2.71200000       0.37680000
H        1.65360000      -2.59320000       1.50660000
H       -1.08330000      -2.98770000       2.70350000
H       -0.22990000      -1.52080000       4.36750000
H       -1.21800000      -0.10650000       2.76560000
H       -0.53420000      -0.55200000      -0.83100000
