13
Properties=species:S:1:pos:R:3 gdb_14821=T pbc="F F F"
O       -0.56580000       0.86680000       0.90040000
C        0.14310000       0.78650000      -0.06550000
C        1.43890000       1.57240000      -0.20830000
O        2.36270000       0.95350000      -1.11450000
C        2.38780000       2.09440000      -1.99120000
C        1.37830000       2.86580000      -1.09470000
C        0.10510000       3.21500000      -1.70030000
N       -0.90210000       3.48420000      -2.19940000
H       -0.08630000       0.13340000      -0.93510000
H        1.86460000       1.74650000       0.78570000
H        3.38140000       2.54990000      -2.05120000
H        2.02780000       1.85480000      -2.99620000
H        1.79750000       3.74090000      -0.59630000
