17
Properties=species:S:1:pos:R:3 gdb_28580=T pbc="F F F"
C        0.23790000       1.37230000       0.18970000
C        0.04560000      -0.08380000      -0.03060000
N       -0.40290000      -0.69360000      -1.07970000
C       -0.38180000      -2.04240000      -0.74090000
C        0.09450000      -2.18690000       0.51990000
O        0.37320000      -0.92610000       0.99240000
C        0.33790000      -3.32810000       1.40460000
C        1.43220000      -3.29540000       2.41630000
N        0.02970000      -3.24410000       2.84970000
H        1.28510000       1.60490000       0.40950000
H       -0.06390000       1.90650000      -0.71140000
H       -0.36290000       1.72770000       1.03350000
H       -0.70900000      -2.80680000      -1.42750000
H        0.07320000      -4.28020000       0.95350000
H        1.95740000      -4.21350000       2.66410000
H        2.03020000      -2.39070000       2.47390000
H       -0.21740000      -2.28300000       3.07640000
