20
Properties=species:S:1:pos:R:3 gdb_80873=T pbc="F F F"
C       -0.01990000       1.50580000       0.07210000
C       -0.04220000       0.00600000      -0.07010000
C        0.35390000      -0.75300000      -1.36570000
C       -0.33510000      -1.94450000      -0.66200000
C        0.47820000      -2.12380000       0.62060000
C        1.81150000      -1.49350000       0.78630000
N        0.60600000      -0.70540000       1.09500000
C       -1.35780000      -0.85020000      -0.13600000
O       -2.09560000      -1.04160000       1.02790000
H        1.00720000       1.88600000       0.08330000
H       -0.55080000       1.98330000      -0.75720000
H       -0.49830000       1.80680000       1.00910000
H       -0.22510000      -0.39310000      -2.21840000
H        1.39960000      -0.83310000      -1.65900000
H       -0.65400000      -2.83860000      -1.19540000
H        0.13490000      -2.85310000       1.34920000
H        2.38490000      -1.75230000       1.67270000
H        2.42660000      -1.23820000      -0.06860000
H       -2.04680000      -0.52260000      -0.91830000
H       -1.45950000      -1.02800000       1.75650000
