16
Properties=species:S:1:pos:R:3 gdb_15392=T pbc="F F F"
C       -0.27360000       1.33340000      -0.33780000
O       -0.37560000      -0.06950000      -0.43150000
C       -1.05440000      -0.64140000       0.66110000
C       -1.11440000      -2.12950000       0.43250000
N       -2.10070000      -2.86560000       1.21690000
C       -2.27430000      -2.78660000      -0.24920000
C       -3.40650000      -2.02870000      -0.72560000
N       -4.30460000      -1.42430000      -1.13100000
H        0.26230000       1.68000000      -1.22420000
H       -1.26460000       1.81120000      -0.30980000
H        0.28440000       1.64210000       0.56030000
H       -0.52340000      -0.43890000       1.60750000
H       -2.07260000      -0.23620000       0.76430000
H       -0.14810000      -2.59270000       0.24200000
H       -1.75980000      -3.78870000       1.47060000
H       -2.05840000      -3.66930000      -0.84470000
