19
Properties=species:S:1:pos:R:3 gdb_77759=T pbc="F F F"
C       -0.18170000       1.54490000       0.79260000
C       -0.06310000       0.05920000       0.49060000
C        1.05760000      -0.46310000      -0.48220000
C        1.99770000      -0.16640000       0.70400000
O        3.01920000       0.39050000       0.95010000
C        0.81540000      -0.86480000       1.41330000
C        0.89570000      -1.86940000       0.21880000
C       -0.28120000      -2.76940000      -0.13100000
O        2.07790000      -2.64250000       0.30340000
H        0.78630000       2.00290000       1.01550000
H       -0.61710000       2.07600000      -0.06050000
H       -0.83860000       1.70990000       1.65330000
H       -1.04300000      -0.36700000       0.27610000
H        1.17870000      -0.24790000      -1.54320000
H        0.67170000      -1.09900000       2.46640000
H       -1.24180000      -2.25540000      -0.17680000
H       -0.11330000      -3.23210000      -1.11140000
H       -0.35310000      -3.57320000       0.60730000
H        2.19020000      -3.12310000      -0.52380000
