20
Properties=species:S:1:pos:R:3 gdb_101640=T pbc="F F F"
C        0.02450000       1.56380000       0.07890000
C       -0.02150000       0.03700000      -0.02330000
C        0.74050000      -0.51350000      -1.23160000
O        2.12070000      -0.10070000      -1.20840000
C        0.62130000      -2.03810000      -1.35870000
C        1.30070000      -2.58270000      -2.63420000
O        2.69730000      -2.38930000      -2.64450000
C        1.03930000      -4.02780000      -2.76410000
N        0.79150000      -5.15200000      -2.85520000
H        1.05600000       1.92350000       0.11660000
H       -0.45690000       2.02990000      -0.78740000
H       -0.49360000       1.91130000       0.97690000
H        0.39400000      -0.41680000       0.88860000
H       -1.06110000      -0.30620000      -0.08330000
H        0.34590000      -0.04860000      -2.14470000
H        2.49130000      -0.36480000      -0.35700000
H        1.07200000      -2.52580000      -0.48540000
H       -0.43840000      -2.31550000      -1.37540000
H        0.82780000      -2.09880000      -3.50740000
H        2.83480000      -1.48050000      -2.33150000
