15
Properties=species:S:1:pos:R:3 gdb_2781=T pbc="F F F"
C        0.05720000       1.56440000       0.03140000
C       -0.22880000       0.07170000      -0.15700000
C        0.66820000      -0.55860000      -1.21280000
O        2.07800000      -0.56630000      -0.85700000
C        2.19850000      -2.00040000      -0.93200000
C        0.70920000      -2.09260000      -1.28780000
O       -0.07710000      -2.96260000      -1.50350000
H        1.10160000       1.72170000       0.31490000
H       -0.12940000       2.12280000      -0.89230000
H       -0.57760000       1.98810000       0.81490000
H       -0.08970000      -0.46110000       0.79120000
H       -1.26920000      -0.08990000      -0.46410000
H        0.51330000      -0.08100000      -2.19200000
H        2.88460000      -2.33490000      -1.72100000
H        2.49010000      -2.46040000       0.02060000
