15
Properties=species:S:1:pos:R:3 gdb_44925=T pbc="F F F"
O        0.02320000       0.00960000      -0.00140000
C       -0.01570000       1.20660000       0.01850000
C       -1.25950000       2.12010000       0.03960000
C       -0.61410000       3.53410000       0.02600000
C        0.62010000       3.31630000      -0.88320000
C        1.17130000       2.19460000       0.00470000
O        1.16150000       2.79910000       1.32810000
C        0.08630000       3.65950000       1.37640000
O       -0.18280000       4.30590000       2.34140000
H       -1.85530000       1.94250000      -0.86130000
H       -1.89280000       1.92240000       0.90770000
H       -1.28420000       4.36150000      -0.19160000
H        0.36750000       2.98330000      -1.89350000
H        1.28880000       4.17870000      -0.93150000
H        2.15220000       1.76880000      -0.18760000
