10
Properties=species:S:1:pos:R:3 gdb_23693=T pbc="F F F"
F        0.08600000       0.06640000       0.00240000
C       -0.06260000       1.36670000       0.01120000
C       -1.25860000       1.99590000       0.03060000
N       -1.29450000       3.36540000       0.03810000
C       -0.18610000       4.03030000       0.02670000
C        1.14400000       3.42540000       0.00620000
O        2.21450000       3.95030000      -0.00650000
O        1.09680000       1.99610000      -0.00100000
H       -2.18810000       1.44490000       0.04030000
H       -0.21100000       5.11560000       0.03220000
