18
Properties=species:S:1:pos:R:3 gdb_58976=T pbc="F F F"
C        0.33000000       1.06840000      -0.70440000
C       -0.08710000       0.10140000       0.40120000
O       -0.03950000       0.71520000       1.69300000
C       -1.43260000      -0.53360000       0.18500000
C       -2.27860000      -0.45860000      -0.84660000
C       -3.47100000      -1.26500000      -0.56000000
N       -4.47790000      -1.42940000      -1.31020000
O       -3.31240000      -1.82320000       0.68730000
C       -2.05540000      -1.41960000       1.23460000
H        1.30230000       1.50350000      -0.46180000
H        0.40680000       0.55740000      -1.66860000
H       -0.39840000       1.88050000      -0.80860000
H        0.66040000      -0.70110000       0.46940000
H       -0.64330000       1.46720000       1.67780000
H       -2.16480000       0.08210000      -1.77420000
H       -5.16260000      -2.03920000      -0.86060000
H       -1.44760000      -2.31010000       1.44620000
H       -2.21830000      -0.89580000       2.18340000
