21
Properties=species:S:1:pos:R:3 gdb_108988=T pbc="F F F"
C       -0.15370000       1.47480000       0.03350000
C        0.08170000      -0.04780000      -0.00510000
C        0.76960000      -0.51820000      -1.24460000
C        2.02940000      -0.90440000      -1.46970000
C        1.99130000      -1.25130000      -2.96570000
C        0.69910000      -2.10980000      -3.05060000
C        0.14880000      -0.69500000      -2.66690000
C       -1.24030000      -0.21880000      -2.99070000
O        1.21530000      -0.13370000      -3.51320000
H        0.79600000       2.01290000      -0.03580000
H       -0.78510000       1.80730000      -0.79510000
H       -0.64620000       1.76380000       0.96740000
H        0.67940000      -0.33830000       0.86670000
H       -0.88500000      -0.55940000       0.09940000
H        2.86970000      -0.98470000      -0.79480000
H        2.91070000      -1.47320000      -3.50550000
H        0.43730000      -2.39090000      -4.07460000
H        0.56960000      -2.93700000      -2.34920000
H       -1.97090000      -0.65800000      -2.30370000
H       -1.30410000       0.87040000      -2.91040000
H       -1.51410000      -0.49960000      -4.01120000
