17
Properties=species:S:1:pos:R:3 gdb_67754=T pbc="F F F"
O        0.08460000       1.38720000      -0.02880000
C       -0.04100000      -0.00290000      -0.06670000
C        0.61890000      -0.72010000      -1.23590000
C       -0.08920000      -1.79830000      -1.61080000
C       -1.06220000      -1.98340000      -0.48330000
C       -0.78660000      -2.83200000       0.52400000
C       -0.57270000      -2.06410000       1.82400000
C       -0.60970000      -0.61400000       1.32430000
C       -1.39210000      -0.59210000       0.05570000
H        0.94000000       1.60080000       0.35840000
H        1.51560000      -0.34080000      -1.71230000
H        0.16010000      -2.51060000      -2.38570000
H       -0.33760000      -3.80910000       0.37530000
H       -1.31530000      -2.22030000       2.62280000
H        0.39600000      -2.36730000       2.24430000
H       -0.73240000       0.18910000       2.04600000
H       -2.32440000      -0.07580000      -0.15410000
