19
Properties=species:S:1:pos:R:3 gdb_36288=T pbc="F F F"
C        0.02540000      -1.21460000      -0.24910000
C       -0.03340000      -0.04080000       0.00300000
C       -0.06570000       1.38870000       0.29460000
C        1.30230000       2.04680000       0.09180000
C        1.94810000       2.25120000      -1.30160000
C        0.89650000       3.02880000      -2.12020000
C        0.54790000       4.09610000      -1.03360000
C        1.50870000       3.58340000       0.06030000
O        2.72710000       3.34040000      -0.70910000
H        0.06420000      -2.25300000      -0.46680000
H       -0.82930000       1.86740000      -0.32860000
H       -0.38450000       1.54310000       1.33410000
H        2.04340000       1.60140000       0.75810000
H        2.54820000       1.48820000      -1.79570000
H        1.34440000       3.46840000      -3.01310000
H        0.04660000       2.41340000      -2.42740000
H        0.81510000       5.10960000      -1.33830000
H       -0.50290000       4.09460000      -0.73020000
H        1.65880000       4.18380000       0.95790000
