21
Properties=species:S:1:pos:R:3 gdb_69778=T pbc="F F F"
C       -0.01370000       1.52850000       0.02950000
C       -0.01760000       0.02090000       0.09560000
C       -1.31910000      -0.71780000      -0.25420000
C       -1.33210000      -2.01570000       0.56140000
C       -2.65340000      -2.60620000       0.98290000
N       -0.21530000      -2.92260000       0.21300000
C       -0.10140000      -2.03800000       1.39920000
C        0.70940000      -0.78470000       1.12810000
N        1.25920000      -0.63460000      -0.22570000
H        0.96240000       1.91640000       0.33100000
H       -0.20830000       1.87690000      -0.99190000
H       -0.78170000       1.95910000       0.68220000
H       -2.17520000      -0.09940000       0.04020000
H       -1.41280000      -0.90900000      -1.32950000
H       -3.22860000      -2.95110000       0.11550000
H       -2.50620000      -3.46320000       1.64930000
H       -3.26520000      -1.86900000       1.51390000
H       -0.43840000      -3.86970000       0.51150000
H       -0.08160000      -2.48710000       2.38650000
H        1.28780000      -0.35010000       1.93790000
H        1.09970000      -1.51190000      -0.72240000
