23
Properties=species:S:1:pos:R:3 gdb_61758=T pbc="F F F"
C       -0.12200000       1.52630000      -0.05040000
C       -0.00860000      -0.00650000       0.06260000
C        0.70780000      -0.36770000       1.37740000
C       -1.42510000      -0.61090000       0.06450000
C        0.79020000      -0.51600000      -1.17500000
O        2.07100000       0.10360000      -1.28240000
C        0.94410000      -2.04700000      -1.27490000
C        1.55030000      -2.46930000      -2.59880000
O        1.14980000      -3.39350000      -3.26030000
H        0.86460000       1.98880000      -0.12340000
H       -0.69180000       1.81210000      -0.94160000
H       -0.63840000       1.93940000       0.82230000
H        0.14040000       0.01190000       2.23300000
H        0.81000000      -1.44970000       1.50980000
H        1.70560000       0.08220000       1.43700000
H       -1.92460000      -0.45760000      -0.89880000
H       -1.42150000      -1.68410000       0.27610000
H       -2.03860000      -0.12930000       0.83280000
H        0.25160000      -0.16630000      -2.06540000
H        2.60150000      -0.18150000      -0.53040000
H        1.62090000      -2.39100000      -0.47830000
H       -0.00320000      -2.57640000      -1.15480000
H        2.41220000      -1.85140000      -2.92870000
