20
Properties=species:S:1:pos:R:3 gdb_121646=T pbc="F F F"
C        0.00930000       1.25790000       0.17380000
C       -0.04950000      -0.20830000      -0.26190000
C        0.52820000      -0.41880000      -1.66620000
N        0.46350000      -1.80150000      -2.10370000
C        1.56410000      -2.55620000      -2.34980000
O        2.71920000      -2.18130000      -2.24660000
C        1.25080000      -3.97690000      -2.76300000
C        0.54760000      -4.88630000      -1.84320000
O       -0.12340000      -4.32180000      -2.97110000
H        1.04140000       1.62430000       0.18940000
H       -0.55920000       1.89900000      -0.50920000
H       -0.40670000       1.38970000       1.17670000
H        0.50610000      -0.83600000       0.44460000
H       -1.08920000      -0.56070000      -0.24050000
H       -0.00210000       0.21820000      -2.38660000
H        1.58460000      -0.13850000      -1.69280000
H       -0.42780000      -2.23040000      -2.30620000
H        1.95820000      -4.39310000      -3.47610000
H        0.73690000      -5.95630000      -1.90060000
H        0.22420000      -4.51350000      -0.87320000
