20
Properties=species:S:1:pos:R:3 gdb_8381=T pbc="F F F"
C        0.30410000       1.57630000      -0.50130000
C        0.15540000       0.09490000      -0.23850000
C        1.38100000      -0.80640000      -0.10880000
C        0.52420000      -0.50190000       1.07960000
C        0.89320000       0.15310000       2.40490000
C        0.08630000      -1.01320000       3.02540000
C       -1.12760000      -0.67950000       3.86730000
O       -0.27580000      -1.50640000       1.70620000
H        1.16260000       1.98970000       0.03910000
H        0.46010000       1.77710000      -1.56700000
H       -0.58580000       2.13130000      -0.18340000
H       -0.70260000      -0.37680000      -0.71180000
H        1.31830000      -1.80700000      -0.52310000
H        2.36500000      -0.34880000      -0.16690000
H        1.95670000       0.18340000       2.64850000
H        0.45380000       1.14060000       2.57040000
H        0.71840000      -1.74930000       3.53980000
H       -1.75210000       0.06780000       3.36800000
H       -1.73330000      -1.57530000       4.03670000
H       -0.82040000      -0.28470000       4.84220000
