16
Properties=species:S:1:pos:R:3 gdb_52570=T pbc="F F F"
C        0.05740000       1.43860000       0.00980000
C        0.02600000      -0.01270000       0.00180000
C       -0.01620000      -1.21890000      -0.00460000
C       -0.04270000      -2.65890000      -0.01280000
O       -1.07330000      -3.30370000      -0.00380000
C        1.32030000      -3.33450000      -0.03390000
N        1.15070000      -4.76320000      -0.04060000
C        2.20250000      -5.61700000      -0.04710000
O        3.36670000      -5.27300000      -0.05180000
H        1.08440000       1.81700000       0.00280000
H       -0.46140000       1.84010000      -0.86730000
H       -0.44560000       1.83010000       0.90060000
H        1.87860000      -2.98530000      -0.91350000
H        1.90050000      -2.99680000       0.83600000
H        0.19580000      -5.09350000      -0.03180000
H        1.87870000      -6.67620000      -0.04810000
