21
Properties=species:S:1:pos:R:3 gdb_74957=T pbc="F F F"
C       -0.06020000       1.48860000       0.02920000
C        0.06370000       0.00130000      -0.02990000
C        0.05750000      -0.80040000      -1.10410000
C        0.03820000      -2.22430000      -0.58250000
C        0.92090000      -2.09520000       0.66460000
C        0.07350000      -0.90960000       1.20580000
C        0.45390000      -0.29930000       2.54220000
C       -1.32160000      -1.61830000       1.16950000
O       -1.27760000      -2.45420000       0.01240000
H        0.78590000       1.94480000       0.55770000
H       -0.10730000       1.92160000      -0.97370000
H       -0.96460000       1.79450000       0.57110000
H       -0.06130000      -0.50650000      -2.13980000
H        0.22710000      -3.03230000      -1.28710000
H        0.89330000      -2.98390000       1.30310000
H        1.95210000      -1.81050000       0.44810000
H        1.45600000       0.14080000       2.50860000
H       -0.24490000       0.49030000       2.84010000
H        0.44950000      -1.05840000       3.33170000
H       -1.47050000      -2.23700000       2.06520000
H       -2.15060000      -0.90310000       1.09560000
