19
Properties=species:S:1:pos:R:3 gdb_112172=T pbc="F F F"
C       -0.24520000       1.60200000       0.13530000
C       -0.05060000       0.09820000       0.00510000
O       -1.25990000      -0.59860000       0.23100000
C        0.70610000      -0.44240000      -1.26460000
C        1.06740000       0.46540000      -2.42690000
O        1.92750000      -0.19320000      -3.34880000
N        1.82670000      -0.76730000      -0.36080000
C        1.12130000      -0.50080000       0.79540000
N        1.22890000      -0.68910000       2.04260000
H        0.67720000       2.15310000      -0.06890000
H       -1.02660000       1.94560000      -0.54890000
H       -0.55660000       1.83510000       1.15790000
H       -1.28040000      -0.80570000       1.17390000
H        0.18320000      -1.33510000      -1.63320000
H        0.14980000       0.82920000      -2.91450000
H        1.62760000       1.33360000      -2.06950000
H        1.41740000      -0.88250000      -3.78670000
H        2.56030000      -1.44500000      -0.50820000
H        2.07530000      -1.20270000       2.29230000
