15
Properties=species:S:1:pos:R:3 gdb_21550=T pbc="F F F"
N       -0.01250000       1.49710000      -0.08740000
C       -0.01160000       0.08950000      -0.05110000
C       -1.06150000      -0.80900000      -0.15900000
C       -2.46850000      -1.37220000      -0.32610000
C       -1.76020000      -2.79000000      -0.32090000
N       -0.51190000      -2.03860000      -0.14440000
N        0.81220000      -2.08910000      -0.05420000
C        1.11990000      -0.77660000       0.01380000
H        0.84720000       1.88060000       0.28500000
H       -0.78760000       1.89690000       0.42700000
H       -3.15850000      -1.21150000       0.50630000
H       -2.97420000      -1.12790000      -1.26350000
H       -2.01070000      -3.44610000       0.51700000
H       -1.81640000      -3.34460000      -1.26130000
H        2.15540000      -0.47940000       0.10690000
