19
Properties=species:S:1:pos:R:3 gdb_86508=T pbc="F F F"
C       -0.31520000       1.41270000      -0.06160000
C       -0.02510000      -0.07530000       0.11330000
C        1.06980000      -0.63110000      -0.84410000
C        2.10670000      -0.53490000       0.32810000
C        0.90250000      -0.41100000       1.31780000
C        3.04520000      -1.61910000       0.49510000
C        3.80320000      -2.55080000       0.64110000
C        4.73030000      -3.64090000       0.78080000
O        4.67000000      -4.49280000       1.63890000
H        0.60620000       2.00690000      -0.05120000
H       -0.82270000       1.60600000      -1.01280000
H       -0.95710000       1.78500000       0.74400000
H       -0.96350000      -0.63570000       0.09640000
H        0.89010000      -1.66950000      -1.12970000
H        1.29900000      -0.04940000      -1.74010000
H        2.65490000       0.41090000       0.26770000
H        0.99730000       0.34240000       2.10360000
H        0.66690000      -1.37380000       1.77570000
H        5.53710000      -3.64930000       0.01890000
