21
Properties=species:S:1:pos:R:3 gdb_112652=T pbc="F F F"
C       -0.30330000       1.52170000       0.05150000
C        0.07530000       0.04600000      -0.03460000
C        0.92330000      -0.39840000      -1.23730000
C        1.57800000      -1.72210000      -0.78150000
C        2.76770000      -2.13850000      -1.62970000
O        3.25140000      -3.37640000      -1.12980000
C        1.90940000      -1.47510000       0.70070000
C        0.87980000      -0.44840000       1.17880000
O        0.72780000      -0.07130000       2.31290000
H        0.58620000       2.15750000      -0.01630000
H       -0.98450000       1.80700000      -0.75560000
H       -0.78780000       1.72860000       1.00930000
H       -0.84550000      -0.55960000      -0.02260000
H        0.34120000      -0.50970000      -2.15640000
H        1.70160000       0.35270000      -1.43430000
H        0.83040000      -2.52350000      -0.84580000
H        2.46010000      -2.22630000      -2.68460000
H        3.54440000      -1.35640000      -1.57870000
H        4.01800000      -3.63510000      -1.64930000
H        1.91050000      -2.36780000       1.32880000
H        2.90240000      -1.01560000       0.80670000
