13
Properties=species:S:1:pos:R:3 gdb_24542=T pbc="F F F"
O       -0.05880000       1.31850000       0.00980000
C        1.09500000       2.01300000       0.00260000
C        2.32110000       1.42320000      -0.01250000
C        2.45100000       0.00580000      -0.02190000
C        1.29240000      -0.71950000      -0.01490000
N        1.00100000      -2.05970000      -0.01970000
C       -0.32440000      -2.05980000      -0.00690000
N       -0.99000000      -0.84230000       0.00640000
C        0.02230000      -0.01760000       0.00140000
H        0.91630000       3.07900000       0.01050000
H        3.19440000       2.06290000      -0.01730000
H        3.42750000      -0.46580000      -0.03400000
H       -0.89570000      -2.98030000      -0.00670000
