14
Properties=species:S:1:pos:R:3 gdb_128443=T pbc="F F F"
C       -0.04010000       1.34560000       0.05050000
O        0.02240000      -0.08450000      -0.03490000
C        0.64680000      -0.56670000      -1.12890000
O        1.12980000       0.12290000      -1.99410000
C        0.66340000      -2.03390000      -1.13260000
C        0.16080000      -2.92380000      -0.22960000
O        0.39700000      -4.17210000      -0.62520000
N        1.08860000      -4.14490000      -1.84620000
C        1.23540000      -2.87860000      -2.12810000
H        0.96500000       1.77390000       0.07110000
H       -0.58130000       1.75850000      -0.80430000
H       -0.56790000       1.56280000       0.97890000
H       -0.36820000      -2.80290000       0.70240000
H        1.74500000      -2.58190000      -3.03300000
