16
Properties=species:S:1:pos:R:3 gdb_47127=T pbc="F F F"
O        0.07670000      -0.05120000       0.00200000
C       -0.01000000       1.15790000       0.02900000
C       -1.32700000       1.92020000       0.09640000
C       -1.22430000       3.25800000       0.84670000
C       -0.01190000       4.02850000       0.40460000
C        1.08630000       3.37400000      -0.00910000
N        1.10600000       1.96500000      -0.06010000
C        2.29220000       4.01760000      -0.40240000
C        3.33340000       4.52340000      -0.73290000
H       -1.62720000       2.10660000      -0.94370000
H       -2.07270000       1.25430000       0.53350000
H       -2.13520000       3.84380000       0.68920000
H       -1.16800000       3.07410000       1.93100000
H       -0.00120000       5.10960000       0.44000000
H        1.98560000       1.49340000      -0.20840000
H        4.24410000       4.98470000      -1.02640000
