18
Properties=species:S:1:pos:R:3 gdb_6735=T pbc="F F F"
C       -0.06580000       1.54600000      -0.05090000
C       -0.04290000       0.01750000      -0.08300000
O        0.94230000      -0.50880000       0.79270000
C       -1.44120000      -0.57240000       0.21190000
C       -1.49450000      -2.02560000       0.12760000
C       -1.53670000      -3.22490000       0.03880000
C       -1.56460000      -4.67870000      -0.04290000
O       -2.42030000      -5.08610000      -1.10580000
H        0.93660000       1.93890000      -0.23870000
H       -0.74670000       1.95250000      -0.80590000
H       -0.39760000       1.91060000       0.92960000
H        0.26680000      -0.32160000      -1.07770000
H        0.71230000      -0.24540000       1.69100000
H       -1.75730000      -0.24040000       1.21240000
H       -2.16530000      -0.13830000      -0.49010000
H       -0.53750000      -5.04870000      -0.19600000
H       -1.90840000      -5.08840000       0.92130000
H       -2.40000000      -6.04820000      -1.13500000
