18
Properties=species:S:1:pos:R:3 gdb_24684=T pbc="F F F"
C        0.01460000       1.43780000       0.14780000
C        1.46220000       1.90300000      -0.14280000
C        2.23690000       0.60590000      -0.05060000
C        3.59350000       0.35510000       0.04840000
C        4.04550000      -0.96970000       0.08050000
C        3.13190000      -2.01830000       0.00480000
C        1.76000000      -1.77780000      -0.10360000
C        1.32350000      -0.45700000      -0.13040000
N        0.01740000       0.02510000      -0.27320000
H       -0.20340000       1.53580000       1.22270000
H       -0.73650000       2.00880000      -0.40450000
H        1.53390000       2.32460000      -1.15420000
H        1.79780000       2.67430000       0.55540000
H        4.30210000       1.17590000       0.11050000
H        5.10600000      -1.17830000       0.16770000
H        3.48760000      -3.04340000       0.03420000
H        1.05520000      -2.60110000      -0.16030000
H       -0.71680000      -0.54970000       0.11570000
