17
Properties=species:S:1:pos:R:3 gdb_104560=T pbc="F F F"
O        0.08300000       1.20890000      -0.39660000
C       -0.10080000      -0.14270000      -0.04410000
C       -1.58760000      -0.50500000       0.14440000
C       -2.37290000      -0.45000000      -1.21650000
C       -2.34420000      -1.98450000      -1.23650000
O       -2.60600000      -2.80840000      -2.06140000
C       -1.80470000      -2.05990000       0.20220000
C       -2.15420000       0.27220000       1.23240000
C       -2.58570000       0.95130000       2.12770000
H       -0.30520000       1.74270000       0.30730000
H        0.30990000      -0.73480000      -0.86960000
H        0.45100000      -0.41100000       0.86990000
H       -3.39210000      -0.06500000      -1.11930000
H       -1.87220000       0.07390000      -2.03400000
H       -0.91370000      -2.67440000       0.36070000
H       -2.57620000      -2.36600000       0.91410000
H       -2.98780000       1.53190000       2.92120000
