21
Properties=species:S:1:pos:R:3 gdb_53528=T pbc="F F F"
C        0.12480000       1.41690000      -0.43550000
C        0.04540000       0.00380000      -0.09140000
C       -0.00840000      -1.16500000       0.19440000
C       -0.09420000      -2.58380000       0.53360000
C       -1.45860000      -3.19610000       0.21580000
C       -2.60600000      -2.66400000       1.04990000
C       -1.73550000      -3.57530000      -1.22780000
C       -1.49150000      -4.64530000      -0.18950000
O       -0.28240000      -5.35120000      -0.18970000
H        1.10750000       1.67310000      -0.84730000
H       -0.62660000       1.68800000      -1.18570000
H       -0.04090000       2.05320000       0.44120000
H        0.68230000      -3.14770000       0.00780000
H        0.11350000      -2.71810000       1.60450000
H       -2.71810000      -1.58430000       0.90650000
H       -3.55250000      -3.14100000       0.77740000
H       -2.43380000      -2.84550000       2.11750000
H       -2.73800000      -3.44400000      -1.62200000
H       -0.93990000      -3.40130000      -1.94530000
H       -2.34990000      -5.22770000       0.14800000
H       -0.26440000      -5.90900000      -0.97400000
