17
Properties=species:S:1:pos:R:3 gdb_8671=T pbc="F F F"
C       -0.03060000       1.58980000       0.02970000
C       -0.02160000       0.04950000       0.04290000
C        0.74300000      -0.49070000       1.28170000
O        2.08300000      -0.05800000       1.33810000
C       -1.46840000      -0.51430000       0.03500000
O       -2.21700000      -0.10410000      -1.08640000
C        0.66160000      -0.45380000      -1.15940000
N        1.19370000      -0.87770000      -2.09520000
H        0.98860000       1.97870000       0.03160000
H       -0.56610000       1.96210000      -0.84490000
H       -0.54090000       1.95200000       0.92800000
H        0.25530000      -0.09770000       2.17990000
H        0.66730000      -1.58780000       1.30870000
H        2.56780000      -0.48550000       0.62260000
H       -1.43450000      -1.61020000       0.12380000
H       -1.99080000      -0.12160000       0.91340000
H       -1.84880000      -0.53290000      -1.86750000
