13
Properties=species:S:1:pos:R:3 gdb_3460=T pbc="F F F"
O        0.00130000      -0.03270000      -0.08010000
C       -0.01270000       1.14980000       0.04860000
C       -1.03600000       2.31070000       0.04070000
C       -0.80220000       2.98260000       1.40710000
C        0.76670000       3.00360000       1.38440000
C        0.97870000       2.33760000       0.01160000
O       -0.04950000       2.97570000      -0.81630000
H       -2.03620000       2.24900000      -0.38220000
H       -1.23250000       3.98570000       1.42940000
H       -1.21770000       2.40380000       2.23620000
H        1.17050000       4.01780000       1.39470000
H        1.22130000       2.43640000       2.20090000
H        1.96760000       2.30250000      -0.44020000
