20
Properties=species:S:1:pos:R:3 gdb_122407=T pbc="F F F"
O        0.01380000       1.54910000       0.01200000
C        0.01410000       0.15490000      -0.24340000
C       -1.33650000      -0.50280000       0.04300000
C       -1.35160000      -1.99850000      -0.29120000
C       -2.66870000      -2.66610000       0.04790000
C       -2.72590000      -4.20910000       0.07050000
C       -3.00400000      -4.02350000       1.54690000
N       -3.22570000      -4.79460000       2.50960000
O       -2.94160000      -2.64510000       1.49650000
H       -0.15780000       1.67590000       0.95070000
H        0.26530000       0.05070000      -1.30530000
H        0.80770000      -0.35770000       0.32520000
H       -1.58630000      -0.37560000       1.10450000
H       -2.11060000       0.02270000      -0.52950000
H       -1.16070000      -2.14980000      -1.36250000
H       -0.54640000      -2.51390000       0.24870000
H       -3.50360000      -2.19020000      -0.47680000
H       -3.53640000      -4.67340000      -0.49310000
H       -1.78610000      -4.71650000      -0.15650000
H       -3.37840000      -4.27270000       3.37440000
