19
Properties=species:S:1:pos:R:3 gdb_26203=T pbc="F F F"
C       -0.04200000       1.39240000       0.06710000
N       -0.28110000      -0.03600000       0.01680000
C        0.22450000      -0.79440000       1.15340000
C       -0.16820000      -0.60940000      -1.23420000
C        0.02010000      -0.08020000      -2.48210000
C       -0.04560000      -1.19300000      -3.39430000
N        0.01710000      -1.08710000      -4.79180000
C       -0.24730000      -2.30350000      -2.63760000
O       -0.33290000      -1.94790000      -1.29970000
H        1.01070000       1.66230000      -0.12490000
H       -0.66690000       1.89770000      -0.67440000
H       -0.31680000       1.76490000       1.05740000
H       -0.19460000      -0.37720000       2.07360000
H       -0.08880000      -1.83450000       1.06840000
H        1.32460000      -0.76560000       1.22890000
H        0.18360000       0.95360000      -2.73690000
H        0.69190000      -0.39630000      -5.09540000
H        0.22490000      -1.96950000      -5.24150000
H       -0.35020000      -3.35280000      -2.85020000
