21
Properties=species:S:1:pos:R:3 gdb_40624=T pbc="F F F"
C        0.32740000       1.37670000      -0.00300000
C        1.62430000       0.60770000      -0.01880000
C        0.30840000      -0.13400000      -0.03240000
C       -0.12710000      -0.89160000       1.19260000
C       -1.60330000      -1.43530000       1.23930000
C       -1.09430000      -2.65230000       0.40160000
C        0.15260000      -2.42170000       1.28650000
O       -0.31870000      -2.74770000       2.60570000
C       -1.59650000      -2.06390000       2.63690000
H        0.04160000       1.86610000       0.92250000
H        0.03340000       1.91400000      -0.89780000
H        2.22070000       0.61730000      -0.92440000
H        2.20800000       0.58240000       0.89570000
H        0.03430000      -0.57180000      -0.98700000
H        0.18880000      -0.34590000       2.08950000
H       -2.46400000      -0.83180000       0.95250000
H       -1.60950000      -3.60890000       0.51840000
H       -0.94570000      -2.42510000      -0.65330000
H        1.12660000      -2.87960000       1.11950000
H       -1.60930000      -1.32710000       3.44890000
H       -2.40530000      -2.78680000       2.79860000
