13
Properties=species:S:1:pos:R:3 gdb_34672=T pbc="F F F"
C       -0.08780000      -1.22480000      -0.07580000
C       -0.03600000      -0.02640000      -0.02330000
C        0.01810000       1.40100000       0.03310000
C        0.50960000       2.11810000       1.29040000
C        0.92120000       1.36860000       2.44320000
N        1.23300000       0.78640000       3.39150000
C        1.35830000       2.13610000       0.02110000
C        2.59060000       1.40410000      -0.05350000
N        3.59370000       0.83660000      -0.13900000
H       -0.12190000      -2.28620000      -0.11350000
H       -0.77740000       1.92180000      -0.49140000
H        0.01540000       3.05470000       1.52550000
H        1.37430000       3.08360000      -0.50680000
