17
Properties=species:S:1:pos:R:3 gdb_112232=T pbc="F F F"
O       -0.08440000       1.40110000      -0.34450000
C        0.01300000      -0.01410000      -0.30300000
C       -1.32790000      -0.54090000       0.17710000
C       -2.47510000      -0.31660000      -0.85210000
C       -2.37160000      -1.79790000      -1.23080000
O       -2.73240000      -2.46010000      -2.15340000
C       -1.49310000      -2.10070000       0.02780000
C       -0.34470000      -2.96770000      -0.09290000
C        0.61330000      -3.68350000      -0.22020000
H        0.75090000       1.75120000      -0.66760000
H        0.24250000      -0.43110000      -1.29720000
H        0.80840000      -0.34910000       0.37860000
H       -1.53030000      -0.16540000       1.18120000
H       -3.44260000      -0.08480000      -0.39540000
H       -2.28550000       0.40410000      -1.65020000
H       -2.16920000      -2.46920000       0.81060000
H        1.45410000      -4.32260000      -0.33120000
