18
Properties=species:S:1:pos:R:3 gdb_124843=T pbc="F F F"
C       -0.29800000       1.63720000      -0.25550000
C       -0.03020000       0.15100000      -0.06330000
C       -1.25650000      -0.61990000       0.40540000
C        0.80790000      -0.54810000      -1.23540000
C        1.89800000      -0.70600000      -0.18970000
N        3.08710000      -1.08360000       0.24850000
C        3.00070000      -0.66380000       1.55570000
N        1.86260000      -0.06790000       1.93650000
N        1.18870000      -0.12430000       0.76540000
H        0.60430000       2.16170000      -0.58070000
H       -1.07790000       1.78390000      -1.00930000
H       -0.64050000       2.08990000       0.67990000
H       -2.06150000      -0.52900000      -0.33060000
H       -1.02730000      -1.67990000       0.54240000
H       -1.62000000      -0.22110000       1.35720000
H        0.36980000      -1.47570000      -1.61030000
H        1.04480000       0.11090000      -2.07350000
H        3.81040000      -0.80220000       2.25740000
