18
Properties=species:S:1:pos:R:3 gdb_51643=T pbc="F F F"
N       -0.79380000       1.21450000       0.52850000
C       -0.41360000       0.05360000       0.20980000
O       -1.30570000      -0.94780000       0.10270000
C       -0.79280000      -2.26390000      -0.12430000
C       -0.63200000      -3.04710000       1.20650000
C       -1.89420000      -3.87620000       1.32480000
O       -3.09330000      -3.11640000       1.14450000
C       -2.60100000      -3.87800000       0.03750000
C       -1.82550000      -3.04950000      -0.96660000
H        0.00190000       1.84910000       0.53240000
H        0.61820000      -0.25220000      -0.01940000
H        0.16510000      -2.17720000      -0.64990000
H        0.23990000      -3.71070000       1.15970000
H       -0.49000000      -2.36280000       2.04740000
H       -1.95670000      -4.69400000       2.03860000
H       -3.23530000      -4.69760000      -0.29070000
H       -2.45570000      -2.35910000      -1.53240000
H       -1.32010000      -3.71280000      -1.67790000
