17
Properties=species:S:1:pos:R:3 gdb_16312=T pbc="F F F"
C       -0.24400000       1.53400000      -0.00690000
C        0.06710000       0.03330000       0.08090000
C        0.76960000      -0.47600000      -1.14610000
C        0.06240000      -0.93380000      -2.43350000
C        1.00790000      -1.84690000      -1.74080000
O        2.36800000      -1.49380000      -2.11600000
C        2.20820000      -0.25200000      -1.49940000
N        3.04070000       0.65820000      -1.27740000
H        0.67700000       2.10710000      -0.14340000
H       -0.90520000       1.74950000      -0.85250000
H       -0.73590000       1.88300000       0.90590000
H        0.69520000      -0.16050000       0.95860000
H       -0.85880000      -0.53660000       0.22550000
H       -0.99450000      -1.14370000      -2.29380000
H        0.33070000      -0.52120000      -3.40110000
H        0.83940000      -2.84760000      -1.36730000
H        3.96330000       0.41670000      -1.64310000
