19
Properties=species:S:1:pos:R:3 gdb_88260=T pbc="F F F"
C        0.03150000       1.07620000       0.05350000
C       -0.26150000      -0.38420000       0.30560000
C        0.84530000      -1.39700000       0.32370000
N        0.11110000      -1.05990000       1.53690000
C        0.64820000      -0.45150000       2.66340000
N        0.26180000       0.68920000       3.07810000
C        1.62890000      -1.30210000       3.48740000
C        1.86160000      -2.74430000       3.10010000
O        2.16470000      -0.79410000       4.44530000
H        1.03350000       1.35220000       0.38840000
H       -0.04390000       1.27710000      -1.02060000
H       -0.67890000       1.71500000       0.58240000
H       -1.22320000      -0.72430000      -0.07630000
H        0.69320000      -2.40220000      -0.06080000
H        1.85820000      -1.01190000       0.21750000
H        0.73520000       0.87120000       3.96780000
H        2.41180000      -2.79920000       2.15460000
H        2.44130000      -3.23730000       3.88110000
H        0.90910000      -3.25820000       2.94190000
