11
Properties=species:S:1:pos:R:3 gdb_21607=T pbc="F F F"
N       -0.00640000       1.39580000       0.13720000
C       -0.05420000       0.02760000       0.03970000
C       -1.17580000      -0.73970000       0.00980000
O       -1.15080000      -2.07710000      -0.02840000
N        0.12460000      -2.76500000      -0.03880000
N        1.15330000      -2.09140000      -0.02430000
C        1.22050000      -0.66290000       0.00160000
O        2.29700000      -0.10320000      -0.01670000
H        0.90140000       1.77600000      -0.09380000
H       -0.79450000       1.92710000      -0.19790000
H       -2.18910000      -0.34920000       0.01640000
