20
Properties=species:S:1:pos:R:3 gdb_120399=T pbc="F F F"
C       -0.04270000       1.43210000       0.36710000
C       -0.07150000      -0.07170000       0.08380000
C       -1.49440000      -0.61340000      -0.09750000
C       -1.52870000      -2.10210000      -0.36110000
O       -1.02350000      -2.88810000       0.79240000
C       -2.25750000      -3.44590000       1.00460000
N       -2.71430000      -4.15280000       1.93490000
C       -2.89270000      -2.83350000      -0.22720000
O       -4.02630000      -2.03310000      -0.01800000
H        0.98260000       1.79190000       0.49580000
H       -0.49540000       2.00030000      -0.45320000
H       -0.59770000       1.67300000       1.28040000
H        0.51780000      -0.28850000      -0.81710000
H        0.41190000      -0.61480000       0.90390000
H       -2.10520000      -0.39390000       0.78480000
H       -1.98770000      -0.11380000      -0.94170000
H       -0.95180000      -2.37500000      -1.24990000
H       -2.01480000      -4.33530000       2.65640000
H       -3.06310000      -3.56260000      -1.03010000
H       -4.49380000      -2.39820000       0.74220000
