23
Properties=species:S:1:pos:R:3 gdb_81235=T pbc="F F F"
C       -0.10690000       1.57720000       0.11230000
C        0.04990000       0.06660000       0.00210000
C        1.20550000      -0.59640000      -0.79740000
C        2.17950000      -0.19730000       0.37260000
C        0.89240000      -0.75870000       1.04980000
C        0.33810000      -1.31590000       2.33850000
C       -0.72170000      -2.34070000       1.79120000
C       -0.34920000      -2.70220000       0.29640000
C        0.93880000      -1.90730000       0.02560000
H        0.82530000       2.10460000       0.32920000
H       -0.50700000       1.98820000      -0.82180000
H       -0.81920000       1.82960000       0.90630000
H       -0.92940000      -0.36830000      -0.21540000
H        1.41070000      -0.50120000      -1.86630000
H        3.08050000      -0.80890000       0.47660000
H        2.41620000       0.86040000       0.49000000
H        1.12240000      -1.83330000       2.90310000
H       -0.11690000      -0.57740000       3.00570000
H       -0.76340000      -3.23330000       2.42130000
H       -1.71870000      -1.89180000       1.82590000
H       -0.17030000      -3.77460000       0.18360000
H       -1.17690000      -2.45710000      -0.37380000
H        1.82590000      -2.54400000       0.11110000
