20
Properties=species:S:1:pos:R:3 gdb_120806=T pbc="F F F"
O        0.00150000       1.41220000       0.25050000
C       -0.01390000      -0.00260000       0.34870000
C       -1.30960000      -0.49570000      -0.28910000
C       -1.42810000      -2.00470000      -0.24430000
C       -2.00480000      -2.71180000       0.96200000
C       -2.74400000      -2.74180000      -0.35160000
C       -4.06820000      -2.01000000      -0.52040000
C       -5.20410000      -2.82120000      -0.07720000
N       -6.09250000      -3.47320000       0.27040000
H        0.81070000       1.73520000       0.65720000
H        0.84880000      -0.45040000      -0.17150000
H        0.02990000      -0.33560000       1.39780000
H       -2.14290000      -0.01610000       0.23580000
H       -1.34200000      -0.13670000      -1.32530000
H       -0.59980000      -2.51670000      -0.72940000
H       -1.54120000      -3.62390000       1.31990000
H       -2.41900000      -2.08800000       1.74900000
H       -2.71040000      -3.68080000      -0.89580000
H       -4.07680000      -1.07440000       0.04730000
H       -4.22970000      -1.73920000      -1.57090000
