22
Properties=species:S:1:pos:R:3 gdb_107821=T pbc="F F F"
C        0.05340000       1.54560000       0.08220000
C       -0.03490000       0.02030000      -0.04660000
C       -1.45300000      -0.52630000      -0.03790000
C       -2.26160000      -0.42720000       1.30530000
C       -2.64130000      -1.90280000       1.13640000
C       -1.65560000      -2.07610000       0.02830000
N       -3.07730000      -2.23050000      -0.23090000
C       -3.56110000      -1.09540000      -1.05000000
C       -2.37280000      -0.11100000      -1.19610000
H        1.09620000       1.87630000       0.10880000
H       -0.43300000       2.04870000      -0.75950000
H       -0.42960000       1.89480000       1.00120000
H        0.46010000      -0.29740000      -0.97480000
H        0.52920000      -0.44450000       0.77270000
H       -1.59770000      -0.29420000       2.16440000
H       -3.06770000       0.31290000       1.36210000
H       -2.93720000      -2.58610000       1.92520000
H       -0.94710000      -2.86230000      -0.20790000
H       -3.89380000      -1.48510000      -2.01620000
H       -4.42910000      -0.63600000      -0.56660000
H       -2.68850000       0.93500000      -1.13140000
H       -1.86340000      -0.24810000      -2.15800000
