23
Properties=species:S:1:pos:R:3 gdb_59199=T pbc="F F F"
C        0.02560000       1.33830000      -0.31460000
C        0.07250000      -0.19050000      -0.25560000
O        0.89950000      -0.72230000      -1.29400000
C        0.69950000      -0.67810000       1.04270000
C       -0.06190000      -0.63990000       2.40690000
C       -0.89110000      -1.86610000       1.92240000
C        0.58000000      -2.16470000       1.50880000
C        0.97630000      -1.68300000       2.94700000
C        2.40090000      -1.30870000       3.32910000
H        1.03140000       1.75680000      -0.20510000
H       -0.38340000       1.67990000      -1.27290000
H       -0.60970000       1.74380000       0.47950000
H       -0.95080000      -0.57470000      -0.36990000
H        0.56980000      -0.38770000      -2.13410000
H        1.71620000      -0.27840000       1.07210000
H       -0.43520000       0.24310000       2.93120000
H       -1.31010000      -2.50320000       2.70660000
H       -1.61910000      -1.70550000       1.12760000
H        0.95220000      -3.04500000       0.98290000
H        0.55140000      -2.32010000       3.73180000
H        2.90580000      -0.67480000       2.59670000
H        2.40900000      -0.77720000       4.28750000
H        3.00740000      -2.21270000       3.45430000
