14
Properties=species:S:1:pos:R:3 gdb_1045=T pbc="F F F"
C       -0.11340000       1.43330000       0.13290000
N       -0.05280000       0.04360000      -0.31140000
C       -1.15760000      -0.76540000      -0.11690000
C       -1.30590000      -2.10080000       0.13090000
C       -2.72200000      -2.34280000       0.11440000
C       -3.31940000      -1.15250000      -0.12590000
O       -2.36530000      -0.17110000      -0.27290000
H        0.82060000       1.92800000      -0.14330000
H       -0.93250000       1.94150000      -0.37920000
H       -0.26630000       1.54340000       1.21730000
H        0.79690000      -0.42680000      -0.03510000
H       -0.51710000      -2.81510000       0.30350000
H       -3.22010000      -3.28690000       0.27180000
H       -4.33920000      -0.82010000      -0.21140000
