20
Properties=species:S:1:pos:R:3 gdb_102120=T pbc="F F F"
C       -0.13930000       1.59300000       0.29060000
C       -0.04250000       0.10830000      -0.07030000
N       -1.33810000      -0.56280000      -0.14600000
C       -1.87270000      -0.88950000      -1.35800000
O       -2.95330000      -1.41380000      -1.53600000
C       -2.05350000      -0.83490000       1.08730000
C       -3.51270000      -0.35920000       1.29940000
O       -3.86980000      -1.64800000       1.83770000
C       -2.63590000      -2.24060000       1.38340000
H        0.86010000       2.03600000       0.34360000
H       -0.71990000       2.13780000      -0.45990000
H       -0.62110000       1.73840000       1.26260000
H        0.44600000      -0.00540000      -1.04290000
H        0.58610000      -0.41770000       0.65860000
H       -1.19460000      -0.62190000      -2.19270000
H       -1.41410000      -0.50240000       1.90640000
H       -3.66680000       0.44890000       2.02390000
H       -4.04510000      -0.14000000       0.36940000
H       -2.77930000      -2.85840000       0.49290000
H       -2.14140000      -2.81940000       2.17190000
