22
Properties=species:S:1:pos:R:3 gdb_114009=T pbc="F F F"
C       -0.11910000       1.65790000      -0.36850000
C       -0.44440000       0.16630000      -0.40870000
N        0.49680000      -0.52620000      -1.28360000
C        1.73310000      -1.02360000      -0.69000000
C        0.69390000      -1.97310000      -1.18210000
C       -0.06630000      -2.87140000      -0.22500000
C       -1.45070000      -3.28120000      -0.76620000
C       -2.10530000      -4.32720000       0.10600000
O       -3.19030000      -4.22460000       0.61670000
H        0.87610000       1.82900000       0.05490000
H       -0.13360000       2.08010000      -1.37700000
H       -0.84640000       2.19520000       0.24780000
H       -0.45090000      -0.23220000       0.61950000
H       -1.45140000       0.01810000      -0.81660000
H        2.64730000      -0.84880000      -1.25150000
H        1.84410000      -0.94060000       0.39200000
H        0.85620000      -2.43580000      -2.15670000
H        0.53650000      -3.77420000      -0.05680000
H       -0.17930000      -2.39480000       0.75370000
H       -2.12360000      -2.42420000      -0.85300000
H       -1.32430000      -3.71760000      -1.76800000
H       -1.48530000      -5.24310000       0.26080000
