12
Properties=species:S:1:pos:R:3 gdb_132387=T pbc="F F F"
N        0.02080000       1.35220000       0.10300000
C       -0.01760000      -0.00270000       0.03700000
C       -1.22550000      -0.72130000       0.02270000
C       -1.08620000      -2.09340000      -0.01190000
F       -2.17210000      -2.84770000      -0.02820000
N        0.06570000      -2.74290000      -0.03160000
C        1.11820000      -1.94310000      -0.01580000
F        2.28550000      -2.55550000      -0.03720000
N        1.17380000      -0.63020000       0.01430000
H        0.91410000       1.79250000      -0.04330000
H       -0.80700000       1.89190000      -0.07820000
H       -2.19720000      -0.24810000       0.04170000
