19
Properties=species:S:1:pos:R:3 gdb_36484=T pbc="F F F"
C       -0.00570000      -1.22340000      -0.07350000
C       -0.01440000      -0.02180000      -0.07200000
C       -0.02140000       1.43540000      -0.04880000
C        1.38220000       2.05290000       0.02620000
O        2.08160000       1.73490000      -1.17520000
C        3.10510000       2.70640000      -1.37170000
C        2.55670000       3.99760000      -0.78830000
C        1.13410000       4.32780000      -1.15660000
C        1.42640000       3.57130000       0.11690000
H        0.00370000      -2.28480000      -0.08650000
H       -0.52590000       1.82480000      -0.94040000
H       -0.59530000       1.78590000       0.81850000
H        1.90750000       1.62740000       0.89750000
H        4.03210000       2.41850000      -0.84980000
H        3.31210000       2.74510000      -2.44630000
H        3.24600000       4.78630000      -0.51180000
H        0.81880000       5.36010000      -1.05610000
H        0.68330000       3.79370000      -1.98720000
H        1.25290000       4.04040000       1.07820000
