15
Properties=species:S:1:pos:R:3 gdb_24357=T pbc="F F F"
C       -0.00670000       1.41280000       0.00520000
C        1.41790000       1.96200000       0.02150000
O        2.12080000       1.56710000       1.20380000
C        1.92500000       0.24610000       1.46390000
C        2.60730000      -0.59260000       2.28720000
O        2.03610000      -1.83110000       2.24370000
C        0.97800000      -1.78150000       1.38370000
C        0.86790000      -0.52480000       0.87850000
O       -0.01910000      -0.01800000      -0.02010000
H       -0.55130000       1.77180000       0.88920000
H       -0.53170000       1.74170000      -0.89460000
H        1.96020000       1.60910000      -0.86640000
H        1.40530000       3.05430000       0.02050000
H        3.45680000      -0.47120000       2.93560000
H        0.42750000      -2.69380000       1.23650000
