16
Properties=species:S:1:pos:R:3 gdb_4079=T pbc="F F F"
O       -0.05970000       1.37840000       0.04170000
N        0.06390000      -0.02610000       0.00110000
C       -1.08700000      -0.60100000      -0.02860000
C       -1.08380000      -2.11510000      -0.01990000
C       -2.24180000      -2.65610000      -0.86480000
N       -3.49500000      -2.07170000      -0.39650000
C       -3.50650000      -0.71700000      -0.16340000
C       -2.38950000       0.03170000      -0.00910000
H        0.86100000       1.65520000       0.07810000
H       -0.12680000      -2.49250000      -0.38600000
H       -1.20910000      -2.46680000       1.01260000
H       -2.06800000      -2.40510000      -1.92390000
H       -2.30570000      -3.74490000      -0.78160000
H       -4.33630000      -2.45720000      -0.79520000
H       -4.49490000      -0.27400000      -0.08900000
H       -2.46420000       1.09310000       0.17350000
