20
Properties=species:S:1:pos:R:3 gdb_113979=T pbc="F F F"
C       -0.09590000       1.37640000      -0.64150000
C       -0.01470000       0.19520000       0.33420000
C       -1.33680000      -0.52450000       0.44700000
O       -1.72800000      -1.36810000      -0.64710000
C       -1.51890000      -1.97400000       0.63480000
C       -0.40460000      -2.98850000       0.73180000
C       -0.74970000      -4.24240000      -0.10180000
C        0.29190000      -5.26350000      -0.03390000
N        1.12680000      -6.05950000       0.03450000
H        0.86500000       1.89360000      -0.71210000
H       -0.37230000       1.03000000      -1.64170000
H       -0.84680000       2.10600000      -0.31950000
H        0.76530000      -0.49790000       0.00650000
H        0.27120000       0.55160000       1.33240000
H       -2.15250000       0.10820000       0.80740000
H       -2.44740000      -2.29240000       1.11690000
H        0.53860000      -2.57220000       0.37290000
H       -0.26010000      -3.27120000       1.78040000
H       -1.69310000      -4.68270000       0.24200000
H       -0.89770000      -3.95030000      -1.14680000
