13
Properties=species:S:1:pos:R:3 gdb_131585=T pbc="F F F"
O        0.05000000       1.36670000       0.00850000
C       -0.01280000      -0.03090000       0.00180000
C       -1.46980000      -0.46090000       0.01130000
O       -2.40440000       0.30140000       0.02270000
C       -1.71440000      -1.92970000       0.00600000
C       -2.87760000      -2.63930000       0.01210000
N       -2.53120000      -3.96700000       0.00240000
N       -1.28120000      -4.10410000      -0.00850000
O       -0.69670000      -2.79450000      -0.00670000
H        0.97620000       1.62490000       0.00120000
H        0.46000000      -0.48600000      -0.88590000
H        0.47430000      -0.49510000       0.87690000
H       -3.89850000      -2.30080000       0.02220000
