17
Properties=species:S:1:pos:R:3 gdb_96211=T pbc="F F F"
O       -0.00010000       1.39600000       0.05080000
C        0.04470000      -0.01660000      -0.01530000
C       -1.40280000      -0.51050000       0.00140000
O       -1.46030000      -1.90200000      -0.24710000
C       -1.04690000      -2.23790000      -1.55430000
C        0.19970000      -1.52740000      -1.99200000
C        0.72690000      -0.51570000      -1.28900000
C        1.91550000       0.16470000      -1.66940000
C        2.91200000       0.79860000      -1.91490000
H        0.88280000       1.72840000      -0.15120000
H        0.57970000      -0.42950000       0.85530000
H       -1.85620000      -0.34380000       0.98110000
H       -1.97280000       0.06030000      -0.74770000
H       -0.88650000      -3.32300000      -1.55950000
H       -1.85400000      -2.03490000      -2.28380000
H        0.66160000      -1.86130000      -2.91650000
H        3.79710000       1.33090000      -2.16270000
