21
Properties=species:S:1:pos:R:3 gdb_83991=T pbc="F F F"
O       -0.05440000       0.92620000       0.63230000
C        0.02290000      -0.36680000       0.11110000
C       -1.20970000      -1.19960000      -0.13110000
C       -2.62180000      -0.82970000       0.29060000
C       -3.09150000       0.61750000       0.10850000
C       -3.23040000       1.07640000      -1.35100000
C       -1.96500000       1.25240000      -2.15380000
C       -0.84840000       0.51360000      -2.16000000
C       -0.44600000      -0.63710000      -1.32130000
H       -0.23060000       1.52940000      -0.10270000
H        0.92180000      -0.87810000       0.44780000
H       -1.02700000      -2.26460000       0.00330000
H       -3.31640000      -1.48940000      -0.24930000
H       -2.72400000      -1.09230000       1.35190000
H       -4.08050000       0.70250000       0.57570000
H       -2.42960000       1.29340000       0.65470000
H       -3.88480000       0.36810000      -1.88400000
H       -3.77180000       2.02980000      -1.36390000
H       -2.00110000       2.06820000      -2.87430000
H       -0.08060000       0.80500000      -2.87690000
H        0.16300000      -1.35570000      -1.86410000
