17
Properties=species:S:1:pos:R:3 gdb_50987=T pbc="F F F"
O        0.00430000       0.17470000       0.19240000
C        0.91780000       0.67160000      -0.41430000
C        1.58560000       1.98290000      -0.04130000
C        1.61740000       2.95490000      -1.21380000
C        0.23640000       3.44740000      -1.65520000
C        0.24750000       4.39470000      -2.76050000
C        0.24670000       5.18340000      -3.66670000
C        2.82940000       3.74090000      -1.47840000
O        2.51280000       2.58320000      -2.26270000
H        1.34810000       0.18470000      -1.31680000
H        1.06810000       2.40990000       0.82300000
H        2.61980000       1.75510000       0.24450000
H       -0.37170000       2.57410000      -1.92820000
H       -0.26160000       3.89670000      -0.78580000
H        0.24170000       5.87270000      -4.47450000
H        2.74710000       4.68700000      -2.00720000
H        3.68790000       3.63660000      -0.81650000
