14
Properties=species:S:1:pos:R:3 gdb_27400=T pbc="F F F"
O       -0.17880000       1.31700000       0.01070000
C        0.03410000      -0.01850000       0.00280000
C        1.22370000      -0.66180000      -0.00710000
C        1.29560000      -2.12620000      -0.01460000
O        2.35720000      -2.74180000      -0.02480000
C       -0.01120000      -2.79100000      -0.01150000
C       -1.16030000      -2.07800000      -0.00150000
O       -2.42520000      -2.55650000       0.00270000
N       -1.15120000      -0.70720000       0.00580000
H        0.67450000       1.76400000       0.00840000
H        2.15360000      -0.10560000      -0.00950000
H       -0.03200000      -3.87430000      -0.01730000
H       -2.38940000      -3.51910000      -0.00260000
H       -2.02290000      -0.20170000       0.01310000
