19
Properties=species:S:1:pos:R:3 gdb_77735=T pbc="F F F"
C        0.40730000       1.46370000       0.33550000
C        0.07700000       0.03620000      -0.02370000
C       -1.18850000      -0.66760000       0.63380000
C       -2.01630000      -1.79430000      -0.01710000
C       -0.93210000      -2.41530000      -0.89470000
C        0.27490000      -1.95610000      -0.50260000
C        0.18630000      -1.19840000       0.82910000
C        0.81450000      -0.70490000      -1.21780000
O        0.51530000      -0.46090000      -2.54990000
H        1.49080000       1.62870000       0.31780000
H       -0.04620000       2.16630000      -0.37210000
H        0.04780000       1.71880000       1.33750000
H       -1.65010000      -0.04250000       1.39640000
H       -2.46810000      -2.42710000       0.76060000
H       -2.83740000      -1.45090000      -0.65960000
H       -1.15080000      -2.67990000      -1.92670000
H        0.74930000      -1.37590000       1.73610000
H        1.88630000      -0.50420000      -1.10720000
H       -0.41410000      -0.68490000      -2.68480000
