18
Properties=species:S:1:pos:R:3 gdb_70057=T pbc="F F F"
C       -0.01350000       1.60120000       0.14220000
C        0.02510000       0.09660000       0.01570000
C       -0.81860000      -0.74160000       0.95160000
C        0.68050000      -0.82380000       1.09990000
N        1.23030000      -2.03130000       0.48630000
C        1.10110000      -1.80450000      -0.75260000
O        0.85150000      -2.58410000      -1.85280000
C       -0.07090000      -1.51850000      -2.31840000
C        0.53440000      -0.52420000      -1.26920000
H        0.90520000       2.05690000      -0.24470000
H       -0.85690000       2.02800000      -0.41350000
H       -0.12160000       1.90970000       1.18670000
H       -1.37220000      -0.18480000       1.70120000
H       -1.32470000      -1.63350000       0.59520000
H        1.17430000      -0.43380000       1.98240000
H        0.10110000      -1.28920000      -3.37070000
H       -1.10390000      -1.82360000      -2.13580000
H        1.26590000       0.12480000      -1.76000000
