17
Properties=species:S:1:pos:R:3 gdb_126665=T pbc="F F F"
C        0.02300000       1.51860000       0.00880000
C       -0.04750000      -0.01100000       0.00290000
C       -1.48310000      -0.50550000       0.01320000
O       -1.44540000      -1.95250000       0.00650000
C       -2.59970000      -2.59200000       0.01440000
C       -2.82000000      -3.95170000       0.01090000
N       -4.17120000      -4.11160000       0.02250000
N       -4.80050000      -3.04010000       0.03270000
O       -3.73860000      -1.93990000       0.02750000
H        1.06210000       1.85780000       0.00130000
H       -0.47290000       1.94550000      -0.86940000
H       -0.45760000       1.93790000       0.89920000
H        0.45740000      -0.41260000      -0.88270000
H        0.47280000      -0.42020000       0.87600000
H       -2.02190000      -0.16960000       0.90590000
H       -2.03740000      -0.16180000      -0.86680000
H       -2.12400000      -4.77020000       0.00120000
