19
Properties=species:S:1:pos:R:3 gdb_98414=T pbc="F F F"
C        0.02950000       1.54460000       0.04180000
C        0.04050000       0.02190000      -0.05930000
C        0.68690000      -0.49140000      -1.33070000
O        1.12160000       0.26690000      -2.18870000
C        0.82090000      -1.96390000      -1.48910000
O        0.39010000      -2.77190000      -0.43260000
C        0.77350000      -2.53530000      -2.91110000
C        2.09410000      -2.43940000      -2.22280000
O        3.07980000      -1.56460000      -2.61660000
H        1.04690000       1.94340000       0.02780000
H       -0.50490000       1.99060000      -0.80080000
H       -0.45460000       1.86360000       0.96880000
H        0.55920000      -0.44390000       0.78770000
H       -0.97810000      -0.38910000      -0.01150000
H       -0.54620000      -2.96520000      -0.55670000
H        0.31060000      -3.51200000      -3.00680000
H        0.56450000      -1.82390000      -3.70310000
H        2.50610000      -3.35190000      -1.80460000
H        2.64620000      -0.71070000      -2.79060000
