18
Properties=species:S:1:pos:R:3 gdb_9953=T pbc="F F F"
C       -0.01880000       1.57470000       0.16850000
C       -0.04470000       0.06330000       0.08190000
C       -1.31160000      -0.53900000      -0.49170000
O       -1.51690000      -0.22390000      -1.86440000
C        1.23870000      -0.69000000      -0.23570000
O        2.46050000      -0.00330000      -0.30130000
C        0.67180000      -0.74630000       1.15790000
O        1.37900000      -0.09620000       2.16500000
H        0.82900000       1.92530000       0.75850000
H        0.03830000       2.03920000      -0.82400000
H       -0.92830000       1.94330000       0.65690000
H       -1.26310000      -1.63260000      -0.44890000
H       -2.17570000      -0.23040000       0.11860000
H       -1.72420000       0.71360000      -1.92280000
H        1.17750000      -1.56210000      -0.88440000
H        2.42800000       0.62230000      -1.03210000
H        0.20640000      -1.66650000       1.50270000
H        2.22510000       0.16230000       1.77360000
