17
Properties=species:S:1:pos:R:3 gdb_60994=T pbc="F F F"
O        1.47520000       1.52990000      -0.60690000
C        0.50730000       0.77440000       0.06980000
C       -0.04520000      -0.30980000      -0.84050000
O        0.35630000      -0.44960000      -1.97110000
C        1.08220000       0.15350000       1.33200000
C        1.12330000       0.94470000       2.60410000
C        0.17550000      -0.23930000       2.49710000
C       -1.24440000      -0.03980000       2.43680000
C       -2.43820000       0.10580000       2.38880000
H        1.52830000       1.14290000      -1.49580000
H       -0.35100000       1.40540000       0.35790000
H       -0.83030000      -0.95870000      -0.40780000
H        1.91540000      -0.51780000       1.14510000
H        1.98320000       0.83870000       3.25490000
H        0.67770000       1.93290000       2.59390000
H        0.47700000      -1.13580000       3.03070000
H       -3.49070000       0.24300000       2.35610000
