23
Properties=species:S:1:pos:R:3 gdb_96341=T pbc="F F F"
C        0.03780000       1.51200000      -0.00550000
C       -0.01740000      -0.01620000       0.05320000
C       -1.48700000      -0.46380000       0.00980000
O        0.71330000      -0.45460000      -1.11290000
C        0.82020000      -1.86620000      -1.27130000
C        1.51780000      -2.52650000      -0.08020000
C        0.86010000      -2.09520000       1.23970000
C        0.73260000      -0.56190000       1.29610000
O        2.02290000       0.03190000       1.39720000
H        1.06760000       1.86980000       0.00900000
H       -0.44370000       1.86450000      -0.92170000
H       -0.48440000       1.94500000       0.85300000
H       -1.95150000      -0.10860000      -0.91490000
H       -1.61730000      -1.54610000       0.05870000
H       -2.03290000      -0.02950000       0.85300000
H       -0.17230000      -2.31420000      -1.42800000
H        1.39040000      -2.01230000      -2.19380000
H        1.49440000      -3.61590000      -0.19330000
H        2.57420000      -2.23270000      -0.07260000
H       -0.12720000      -2.55990000       1.34320000
H        1.45920000      -2.42470000       2.09390000
H        0.19680000      -0.26370000       2.20440000
H        2.39320000       0.02520000       0.50600000
