13
Properties=species:S:1:pos:R:3 gdb_5011=T pbc="F F F"
O        0.06260000       1.31280000      -0.15570000
C       -0.01460000      -0.02100000      -0.04100000
C       -1.17090000      -0.71590000       0.06920000
C       -1.10390000      -2.14720000       0.18550000
C        0.08880000      -2.76150000       0.18280000
O        1.26420000      -2.07300000       0.07220000
C        1.27380000      -0.71330000      -0.04160000
N        2.34230000      -0.02400000      -0.14720000
H        1.01950000       1.50350000      -0.21490000
H       -2.12220000      -0.19840000       0.06910000
H       -2.00510000      -2.73940000       0.27560000
H        0.26410000      -3.82460000       0.26350000
H        3.18460000      -0.59420000      -0.13760000
