16
Properties=species:S:1:pos:R:3 gdb_125667=T pbc="F F F"
C        0.09970000       1.47250000      -0.03830000
C        0.02950000      -0.01770000       0.03410000
N       -0.00660000      -0.75170000      -1.07260000
N       -0.07160000      -2.03230000      -0.63950000
C       -0.07450000      -2.13900000       0.70260000
C       -0.00400000      -0.84640000       1.19630000
C        0.00200000      -0.38180000       2.59570000
N        0.20920000      -1.35780000       3.55120000
O       -0.19820000       0.78060000       2.90420000
H        0.99500000       1.84930000       0.46530000
H        0.11470000       1.78900000      -1.08330000
H       -0.75310000       1.92530000       0.47320000
H       -0.12990000      -2.77250000      -1.31820000
H       -0.15540000      -3.09540000       1.19540000
H        0.73820000      -2.17910000       3.30640000
H        0.35750000      -1.00370000       4.48460000
