20
Properties=species:S:1:pos:R:3 gdb_62495=T pbc="F F F"
C       -0.09130000       1.53610000      -0.00180000
C       -0.00650000       0.02190000       0.05890000
C       -1.20860000      -0.67550000      -0.55360000
C        1.36160000      -0.65290000      -0.19000000
C        2.53670000       0.11980000      -0.45240000
N        3.48670000       0.75400000      -0.64610000
C        0.69740000      -0.64810000       1.20390000
C        1.32310000       0.11550000       2.34860000
O        0.12850000      -1.86560000       1.59300000
H        0.82670000       2.03160000       0.31800000
H       -0.29260000       1.85660000      -1.02930000
H       -0.91310000       1.89670000       0.62630000
H       -1.30890000      -0.39880000      -1.60840000
H       -1.13270000      -1.76010000      -0.47760000
H       -2.12560000      -0.36850000      -0.03880000
H        1.32260000      -1.60700000      -0.70520000
H        1.82070000       1.02980000       2.02410000
H        0.56020000       0.37030000       3.09050000
H        2.08070000      -0.50640000       2.84100000
H        0.80870000      -2.38450000       2.03720000
