13
Properties=species:S:1:pos:R:3 gdb_133166=T pbc="F F F"
C       -0.01150000       1.53590000       0.02380000
C       -0.01400000       0.03750000      -0.00560000
C       -0.16020000      -0.69470000      -1.12870000
F       -0.31680000      -0.16890000      -2.32200000
O       -0.17300000      -2.02340000      -1.23590000
N       -0.02270000      -2.81740000      -0.09180000
C        0.12160000      -2.18620000       1.01590000
C        0.14750000      -0.71830000       1.22390000
O        0.29220000      -0.23000000       2.33310000
H        0.92880000       1.90150000       0.44830000
H       -0.14240000       1.96050000      -0.97210000
H       -0.81130000       1.89990000       0.67630000
H        0.23590000      -2.82800000       1.88530000
