19
Properties=species:S:1:pos:R:3 gdb_58396=T pbc="F F F"
C        0.04780000       1.64000000      -0.08570000
C        0.11450000       0.12680000       0.11310000
O        0.80090000      -0.22380000       1.30150000
C       -1.29220000      -0.54560000       0.07320000
C       -1.16500000      -2.08650000       0.02210000
C       -0.68960000      -2.58010000      -1.32830000
O        0.12690000      -3.44580000      -1.50000000
C       -2.08040000      -0.12530000       1.22950000
C       -2.67950000       0.21330000       2.21650000
H        1.05300000       2.06400000      -0.02230000
H       -0.37560000       1.89330000      -1.06350000
H       -0.57560000       2.10560000       0.68490000
H        0.70970000      -0.31620000      -0.69470000
H        0.26910000       0.09490000       2.04220000
H       -1.80210000      -0.20610000      -0.84000000
H       -0.48860000      -2.44150000       0.80210000
H       -2.15330000      -2.53400000       0.19240000
H       -1.18600000      -2.08190000      -2.19710000
H       -3.23780000       0.51280000       3.06930000
