23
Properties=species:S:1:pos:R:3 gdb_113886=T pbc="F F F"
C        0.05080000       1.46200000      -0.39660000
C       -0.17930000       0.17090000       0.39820000
C       -1.40280000      -0.58810000      -0.07540000
C       -1.32040000      -1.55930000      -1.23030000
C       -1.61330000      -2.06600000       0.16480000
C       -0.62120000      -2.93380000       0.92900000
C       -0.89640000      -4.40970000       0.63980000
C       -0.14470000      -5.03090000      -0.52290000
O       -1.69850000      -5.03450000       1.29470000
H        0.93420000       1.99810000      -0.03620000
H        0.19510000       1.24750000      -1.46070000
H       -0.80770000       2.13690000      -0.30940000
H        0.71070000      -0.46380000       0.31940000
H       -0.28820000       0.41230000       1.46380000
H       -2.31550000       0.00330000      -0.03260000
H       -2.10970000      -1.57510000      -1.97390000
H       -0.33000000      -1.75370000      -1.63350000
H       -2.64350000      -2.35700000       0.35290000
H        0.40680000      -2.67650000       0.65580000
H       -0.74490000      -2.78130000       2.00610000
H        0.92800000      -5.06130000      -0.29700000
H       -0.50650000      -6.04320000      -0.70670000
H       -0.26190000      -4.41920000      -1.42390000
