22
Properties=species:S:1:pos:R:3 gdb_118513=T pbc="F F F"
O        0.40350000       1.12100000       0.04180000
C        0.13770000      -0.26520000      -0.10000000
C       -1.35260000      -0.59250000       0.02190000
C       -1.68050000      -2.08730000      -0.13770000
C       -3.16390000      -2.35000000       0.14970000
O       -3.33040000      -3.74560000       0.38110000
C       -1.28520000      -2.59800000      -1.51610000
C       -0.06860000      -3.42930000      -1.71220000
N       -1.40530000      -4.02100000      -1.86020000
H        0.12730000       1.38470000       0.92540000
H        0.50840000      -0.53570000      -1.09270000
H        0.71050000      -0.86060000       0.63020000
H       -1.70650000      -0.25320000       1.00570000
H       -1.90030000      -0.00340000      -0.72510000
H       -1.12080000      -2.65450000       0.62030000
H       -3.48030000      -1.77450000       1.03400000
H       -3.77380000      -2.01200000      -0.70140000
H       -4.25810000      -3.96850000       0.26500000
H       -1.58460000      -1.93530000      -2.32970000
H        0.50640000      -3.35460000      -2.63140000
H        0.52110000      -3.67560000      -0.83190000
H       -1.67170000      -4.53640000      -1.02550000
