13
Properties=species:S:1:pos:R:3 gdb_27503=T pbc="F F F"
N        0.06130000       1.35380000      -0.02610000
C       -0.08620000       0.01030000      -0.08820000
C       -1.22520000      -0.69220000       0.13850000
C       -1.23060000      -2.11100000      -0.02290000
O       -2.12440000      -2.89140000       0.12330000
O        0.03140000      -2.65920000      -0.41680000
C        1.15260000      -1.94280000      -0.61480000
N        2.27320000      -2.40440000      -0.93950000
O        1.07280000      -0.57630000      -0.44980000
H        0.99930000       1.71970000      -0.00930000
H       -0.65870000       1.89940000       0.41480000
H       -2.14280000      -0.20450000       0.43070000
H        2.21730000      -3.41610000      -1.03330000
