17
Properties=species:S:1:pos:R:3 gdb_87655=T pbc="F F F"
N        0.29860000       1.24310000      -0.30020000
C        0.10380000      -0.14980000      -0.00800000
C        0.09230000      -0.56720000       1.46180000
N        0.84160000      -0.38310000       2.44660000
O       -1.11330000      -1.25200000       1.36370000
C       -1.27980000      -0.83100000      -0.00370000
C       -2.57700000      -0.34560000      -0.56120000
C       -1.94070000      -1.65110000      -1.03990000
O       -1.28950000      -1.70070000      -2.27460000
H        0.25470000       1.41190000      -1.29910000
H       -0.40440000       1.82010000       0.14960000
H        0.82600000      -0.73750000      -0.58190000
H        0.46780000      -0.82750000       3.28730000
H       -3.46840000      -0.41900000       0.05280000
H       -2.53040000       0.51550000      -1.22250000
H       -2.42590000      -2.57250000      -0.71740000
H       -1.95900000      -1.74140000      -2.96600000
