16
Properties=species:S:1:pos:R:3 gdb_50183=T pbc="F F F"
O       -0.40110000       0.47670000       0.72050000
C        0.07490000       1.05310000      -0.22260000
C        1.24300000       2.00600000      -0.13380000
C        1.24240000       3.37990000      -0.86850000
N        1.59470000       4.10610000       0.40570000
C        0.46680000       3.86870000       1.35410000
C       -0.90310000       3.80700000       0.93120000
C       -2.05430000       3.79900000       0.58230000
C        1.47200000       2.79200000       1.15080000
H       -0.30690000       0.88770000      -1.25720000
H        2.13610000       1.43650000      -0.41820000
H        2.04980000       3.49870000      -1.59130000
H        0.29780000       3.70410000      -1.31280000
H        0.62270000       4.44770000       2.26130000
H       -3.07500000       3.77130000       0.28950000
H        2.15630000       2.51650000       1.94610000
