17
Properties=species:S:1:pos:R:3 gdb_125819=T pbc="F F F"
C        0.28600000       1.40550000       0.21550000
C        0.09220000      -0.06750000       0.06820000
N        0.06820000      -0.63350000      -1.11460000
O       -0.14820000      -1.98830000      -0.89490000
C       -0.24040000      -2.20600000       0.43070000
C       -0.09730000      -1.03530000       1.10880000
N       -0.20540000      -0.75480000       2.47770000
C        0.26400000      -1.74740000       3.43660000
C        1.01710000      -0.47770000       3.24100000
H        1.21010000       1.63130000       0.75850000
H        0.33540000       1.87650000      -0.76780000
H       -0.53940000       1.84660000       0.78350000
H       -0.42800000      -3.22300000       0.73520000
H       -0.36490000      -1.88570000       4.31050000
H        0.71920000      -2.65470000       3.04540000
H        1.96610000      -0.54250000       2.71430000
H        0.93810000       0.32650000       3.96550000
