18
Properties=species:S:1:pos:R:3 gdb_39353=T pbc="F F F"
C        0.00580000       1.50040000       0.31590000
O        1.29870000       1.99650000      -0.05450000
C        2.00840000       1.03440000      -0.81710000
C        1.95250000       1.18050000      -2.34860000
O        2.10090000      -0.14890000      -2.85180000
C        1.51540000      -1.08010000      -1.93740000
C        1.28350000      -0.28840000      -0.66950000
N        1.08810000      -0.74240000       0.70630000
C        0.01050000       0.01740000       0.01590000
H       -0.15130000       1.73360000       1.37470000
H       -0.78300000       1.99330000      -0.27130000
H        3.04160000       1.01710000      -0.45440000
H        0.98810000       1.62230000      -2.64550000
H        2.75820000       1.78380000      -2.77250000
H        0.58470000      -1.49720000      -2.34860000
H        2.22330000      -1.90560000      -1.79020000
H        0.83950000      -1.73080000       0.71140000
H       -0.91580000      -0.48780000      -0.23710000
