16
Properties=species:S:1:pos:R:3 gdb_54930=T pbc="F F F"
N       -0.12660000       1.32140000       0.13450000
C       -0.03750000      -0.06150000       0.14350000
O        1.01070000      -0.67330000       0.06860000
N       -1.25870000      -0.70150000       0.21150000
C       -2.54210000      -0.26780000      -0.36010000
C       -2.85520000      -1.76230000      -0.70280000
C       -1.42460000      -2.10840000      -0.16320000
C       -3.97010000      -2.35270000       0.01630000
N       -4.85680000      -2.81780000       0.59390000
H        0.76230000       1.77230000       0.29110000
H       -0.90010000       1.74750000       0.62270000
H       -3.22900000       0.19360000       0.35580000
H       -2.44300000       0.37720000      -1.23960000
H       -2.97520000      -1.94790000      -1.77100000
H       -0.71950000      -2.43810000      -0.93100000
H       -1.39930000      -2.80510000       0.67780000
