21
Properties=species:S:1:pos:R:3 gdb_106291=T pbc="F F F"
C        0.09330000       1.51840000       0.16500000
C       -0.06560000       0.00810000      -0.04840000
C        0.66540000      -0.51030000      -1.26990000
C        2.23250000      -0.42010000      -1.42790000
C        1.95060000      -1.48960000      -2.52010000
O        3.01110000      -2.24780000      -3.00710000
C        0.84640000      -2.04720000      -1.55020000
C        1.07220000      -0.67570000      -3.49290000
C        0.23380000      -0.03890000      -2.67460000
H        1.14550000       1.78850000       0.30290000
H       -0.28230000       2.08630000      -0.69270000
H       -0.45630000       1.85100000       1.05090000
H        0.29720000      -0.52480000       0.83930000
H       -1.13150000      -0.24150000      -0.13800000
H        2.65870000       0.53020000      -1.75610000
H        2.77490000      -0.82380000      -0.56680000
H        2.66640000      -2.87160000      -3.65500000
H        1.26490000      -2.59430000      -0.69890000
H        0.00060000      -2.58120000      -1.99130000
H        1.16500000      -0.65950000      -4.57050000
H       -0.57250000       0.64750000      -2.89610000
