20
Properties=species:S:1:pos:R:3 gdb_100827=T pbc="F F F"
C        0.03180000       1.67620000      -0.00600000
C        0.00960000       0.14000000      -0.04370000
N        0.65700000      -0.42410000       1.13530000
C        1.99890000      -0.59920000       1.22550000
O        2.79440000      -0.32280000       0.35040000
C       -1.39190000      -0.48370000      -0.13830000
O       -2.15160000      -0.25860000       1.06080000
C       -2.21990000      -0.06080000      -1.35090000
O       -3.44800000      -0.75640000      -1.38000000
H        1.06580000       2.01390000       0.09200000
H       -0.38160000       2.10890000      -0.92150000
H       -0.52930000       2.06990000       0.84980000
H        0.59290000      -0.18940000      -0.90980000
H        0.06430000      -0.64000000       1.92270000
H        2.29660000      -1.03650000       2.19930000
H       -1.27660000      -1.57230000      -0.17580000
H       -2.29330000       0.69230000       1.14570000
H       -2.38090000       1.03120000      -1.33380000
H       -1.68550000      -0.29800000      -2.27720000
H       -3.77660000      -0.74980000      -0.47230000
