14
Properties=species:S:1:pos:R:3 gdb_66549=T pbc="F F F"
O        0.00830000       1.31160000      -0.04430000
C        0.00640000      -0.05190000       0.05890000
C        1.16560000      -0.97650000      -0.46610000
C       -0.23230000      -1.05240000      -1.01300000
N       -0.56250000      -2.08500000       0.06960000
C        0.94730000      -2.19210000       0.43160000
C        0.59940000      -1.64690000       1.82750000
O        0.99620000      -1.79800000       2.94270000
C       -0.59330000      -0.96390000       1.14350000
H        0.72000000       1.67280000       0.49710000
H        2.06720000      -0.56210000      -0.89800000
H       -0.66010000      -1.01670000      -2.00580000
H        1.47340000      -3.13150000       0.27120000
H       -1.53010000      -0.71400000       1.63650000
