16
Properties=species:S:1:pos:R:3 gdb_121612=T pbc="F F F"
N       -1.11350000       1.58940000      -0.28810000
H       -1.75710000       0.80950000      -0.37950000
H       -0.22650000       1.28200000      -0.67920000
H       -1.68700000       3.07370000      -1.39130000
C       -0.95650000       1.94430000       1.13510000
C       -0.06780000       3.18520000       1.28920000
O       -0.36960000       4.12220000       0.24590000
C       -1.59910000       4.68570000       0.27860000
O       -2.25770000       4.85890000       1.26490000
C       -2.06990000       4.95310000      -1.16310000
O       -2.45790000       6.01650000      -1.55160000
O       -2.04190000       3.84290000      -1.90740000
H       -1.95210000       2.16480000       1.52920000
H       -0.53050000       1.13670000       1.74800000
H       -0.20610000       3.63580000       2.27520000
H        0.98880000       2.94640000       1.14640000
