16
Properties=species:S:1:pos:R:3 gdb_45289=T pbc="F F F"
O       -0.13320000       0.01300000       0.18030000
C       -0.04900000       1.19980000       0.02150000
N       -1.00070000       2.21140000      -0.04280000
C       -0.06340000       3.31920000      -0.22700000
C        0.43990000       4.04800000       1.05820000
C        1.57240000       3.00840000       1.16270000
O        2.76720000       3.36260000       0.42620000
C        2.46360000       2.42110000      -0.64010000
C        1.06230000       2.23780000      -0.09900000
H       -1.95800000       2.21050000       0.28070000
H       -0.22450000       3.90160000      -1.13550000
H        0.80980000       5.06150000       0.88980000
H       -0.27370000       4.05140000       1.88600000
H        1.80000000       2.53350000       2.12050000
H        2.56900000       2.86720000      -1.63480000
H        3.09080000       1.52300000      -0.57140000
