17
Properties=species:S:1:pos:R:3 gdb_44642=T pbc="F F F"
O       -0.02480000       0.01360000      -0.01840000
C       -0.00080000       1.21400000      -0.05510000
N       -1.00350000       2.16890000      -0.07170000
C       -0.11590000       3.32500000       0.00200000
C        0.39260000       3.74970000       1.41340000
C       -0.14710000       3.04910000       2.68060000
C        1.02640000       2.03870000       2.51870000
N        1.54890000       2.78710000       1.32120000
C        1.08330000       2.32620000      -0.03450000
H       -1.99120000       2.07440000       0.12350000
H       -0.30030000       4.10200000      -0.74010000
H        0.65180000       4.80990000       1.49100000
H       -0.10410000       3.66320000       3.58180000
H       -1.14930000       2.62370000       2.59260000
H        1.75550000       2.04790000       3.33340000
H        0.74210000       1.00290000       2.31820000
H        1.86060000       2.29600000      -0.79770000
