12
Properties=species:S:1:pos:R:3 gdb_132235=T pbc="F F F"
F        0.09470000       0.05200000       0.00250000
C       -0.05320000       1.36280000       0.01120000
C       -1.24890000       1.97320000       0.03080000
C       -1.28880000       3.42770000       0.03910000
O       -2.28590000       4.11610000       0.05650000
N       -0.01040000       4.03390000       0.02470000
C        1.22660000       3.42740000       0.00400000
O        2.28610000       4.00700000      -0.00640000
N        1.13690000       2.03120000      -0.00160000
H       -2.17200000       1.41550000       0.04050000
H       -0.00360000       5.04490000       0.03040000
H        2.00670000       1.52040000      -0.01600000
