23
Properties=species:S:1:pos:R:3 gdb_87999=T pbc="F F F"
C       -0.08210000       1.34440000      -0.25730000
C        0.20340000      -0.13020000      -0.07790000
C        1.62460000      -0.63650000       0.03870000
C        0.70720000      -0.66690000       1.23120000
C        0.92500000       0.09200000       2.55260000
C        0.66120000      -1.23760000       3.32700000
C        0.25150000      -1.89900000       2.00080000
C       -0.99970000      -2.69750000       1.76820000
C        0.35990000      -3.34400000       1.61960000
H        0.62790000       1.95520000       0.30970000
H       -0.00450000       1.63890000      -1.30990000
H       -1.08990000       1.60320000       0.08740000
H       -0.47840000      -0.78650000      -0.61650000
H        1.88190000      -1.57650000      -0.44050000
H        2.42680000       0.09690000       0.03850000
H        1.91380000       0.53550000       2.69460000
H        0.16970000       0.85960000       2.74570000
H        1.56720000      -1.66670000       3.76470000
H       -0.11180000      -1.19380000       4.09890000
H       -1.60380000      -2.96170000       2.63080000
H       -1.57300000      -2.50470000       0.86640000
H        0.70010000      -3.58860000       0.61750000
H        0.68130000      -4.04990000       2.37940000
