18
Properties=species:S:1:pos:R:3 gdb_7953=T pbc="F F F"
C        0.22310000       1.63860000       0.06960000
C        0.04390000       0.11610000       0.01550000
C        0.72910000      -0.50740000      -1.21500000
C        2.16080000      -0.82760000      -0.76770000
O        3.07790000      -1.11840000      -1.49000000
C        2.21440000      -0.72420000       0.76060000
C        0.74270000      -0.61150000       1.19240000
O        0.52280000       0.09340000       2.39950000
H        1.27740000       1.92990000       0.00560000
H       -0.29810000       2.10900000      -0.77020000
H       -0.17760000       2.04420000       1.00040000
H       -1.02690000      -0.10780000       0.03250000
H        0.26220000      -1.46120000      -1.49550000
H        0.72490000       0.12240000      -2.10830000
H        2.76530000      -1.56270000       1.19460000
H        2.75060000       0.19560000       1.02620000
H        0.31660000      -1.62570000       1.26320000
H        0.94270000      -0.39360000       3.11500000
