20
Properties=species:S:1:pos:R:3 gdb_120453=T pbc="F F F"
C        0.21620000       1.63280000      -0.02770000
C        0.05960000       0.12190000       0.05000000
N        0.93580000      -0.68370000      -0.85230000
C        1.36890000      -1.60160000       0.24370000
C        2.86970000      -1.83860000       0.36440000
C        3.42350000      -2.68590000      -0.78290000
O        4.81430000      -2.93370000      -0.66300000
C        0.71090000      -0.62090000       1.23060000
O        0.75210000      -0.45750000       2.41310000
H        1.27080000       1.91310000       0.03810000
H       -0.18210000       2.01790000      -0.97150000
H       -0.32600000       2.10910000       0.79510000
H       -1.00510000      -0.15390000      -0.01300000
H        0.43660000      -1.14440000      -1.60420000
H        0.83120000      -2.56380000       0.25360000
H        3.37850000      -0.86630000       0.37800000
H        3.07980000      -2.33300000       1.31950000
H        2.94710000      -3.67340000      -0.78170000
H        3.18110000      -2.20680000      -1.74410000
H        5.27000000      -2.08890000      -0.73500000
