19
Properties=species:S:1:pos:R:3 gdb_116938=T pbc="F F F"
C       -0.18200000       1.20260000      -0.79690000
C       -0.08980000      -0.13620000      -0.23230000
C       -0.01740000      -1.24230000       0.23460000
C        0.07840000      -2.58880000       0.80450000
C       -1.19410000      -3.31540000       0.82350000
C       -2.23690000      -3.91490000       0.85350000
C       -3.50020000      -4.64120000       0.85610000
C       -3.94070000      -5.05930000      -0.55100000
O       -5.16940000      -5.75230000      -0.41080000
H        0.15280000       1.96150000      -0.08110000
H        0.43580000       1.30020000      -1.69650000
H       -1.21360000       1.44380000      -1.07610000
H        0.82210000      -3.17130000       0.24230000
H        0.47370000      -2.52480000       1.82830000
H       -3.42390000      -5.54270000       1.47630000
H       -4.29440000      -4.02800000       1.29910000
H       -4.04630000      -4.16380000      -1.18110000
H       -3.16380000      -5.69370000      -1.00330000
H       -5.46820000      -6.01700000      -1.28530000
