17
Properties=species:S:1:pos:R:3 gdb_13781=T pbc="F F F"
C       -0.18820000       1.45290000      -0.13590000
C       -0.05110000      -0.07030000      -0.07200000
O       -1.30530000      -0.72180000      -0.18480000
C        0.85030000      -0.61310000      -1.16850000
C        0.72060000      -2.02980000      -1.65500000
N        0.35670000      -0.91490000      -2.49750000
C       -0.90300000      -0.70530000      -3.03200000
O       -1.59240000      -1.56500000      -3.52070000
H        0.79060000       1.93750000      -0.06470000
H       -0.66190000       1.76200000      -1.07210000
H       -0.79870000       1.81910000       0.69760000
H        0.43050000      -0.33770000       0.88480000
H       -1.93930000      -0.27200000       0.38110000
H        1.84590000      -0.17070000      -1.15230000
H        1.60970000      -2.58310000      -1.94490000
H       -0.09980000      -2.61880000      -1.25670000
H       -1.16620000       0.36920000      -3.05500000
