21
Properties=species:S:1:pos:R:3 gdb_90240=T pbc="F F F"
C       -0.11240000       1.56700000       0.01540000
C        0.07320000       0.05020000       0.00400000
C        1.10200000      -0.50080000      -1.02990000
C        2.05600000      -1.31800000      -0.11310000
C        2.22980000      -2.76170000      -0.66520000
O        0.87990000      -3.07420000      -0.13060000
C        1.14420000      -1.99840000       0.84760000
C        0.70600000      -0.55020000       1.26440000
C        2.29170000      -0.28620000       1.04810000
H        0.83180000       2.09270000       0.19400000
H       -0.50640000       1.91620000      -0.94510000
H       -0.81780000       1.87640000       0.79440000
H       -0.90420000      -0.41610000      -0.16170000
H        0.62720000      -1.12300000      -1.78980000
H        1.65100000       0.30100000      -1.53570000
H        2.27240000      -2.90090000      -1.74870000
H        2.98950000      -3.37150000      -0.16290000
H        1.65930000      -2.46850000       1.69470000
H        0.23290000      -0.34190000       2.22670000
H        2.89300000      -0.65780000       1.87820000
H        2.58920000       0.73270000       0.78830000
