18
Properties=species:S:1:pos:R:3 gdb_55924=T pbc="F F F"
C        0.05420000       1.50930000      -0.09190000
C        0.13460000      -0.00360000       0.03900000
O        0.42300000      -0.54910000       1.08920000
N       -0.14840000      -0.70040000      -1.10380000
C       -0.12520000      -2.13440000      -1.17530000
C       -1.44830000      -2.89220000      -1.59670000
C       -0.69190000      -3.41460000      -2.82000000
O       -0.23230000      -2.26410000      -3.54740000
C        0.54510000      -2.72010000      -2.42940000
H        0.98980000       1.94240000       0.27010000
H       -0.13030000       1.85380000      -1.11260000
H       -0.74700000       1.87610000       0.55600000
H       -0.37300000      -0.20930000      -1.95440000
H        0.28190000      -2.50480000      -0.23490000
H       -1.72320000      -3.66810000      -0.87880000
H       -2.31600000      -2.26630000      -1.81720000
H       -0.83040000      -4.32980000      -3.38200000
H        1.58930000      -2.94670000      -2.61180000
