15
Properties=species:S:1:pos:R:3 gdb_3520=T pbc="F F F"
C        0.10330000       1.51160000      -0.03990000
O        1.16850000       0.56940000      -0.17120000
C       -0.15680000       0.06700000       0.01810000
C       -0.42860000      -0.64860000       1.30910000
C       -1.89820000      -1.05450000       1.57800000
O       -1.56220000      -2.45430000       1.59820000
C       -0.17270000      -2.17550000       1.33050000
H        0.10580000       2.09390000       0.88090000
H       -0.14230000       2.07070000      -0.94160000
H       -0.58040000      -0.40660000      -0.87080000
H        0.04690000      -0.11120000       2.13210000
H       -2.31870000      -0.71450000       2.53200000
H       -2.60640000      -0.81140000       0.77400000
H        0.15920000      -2.60730000       0.37730000
H        0.48250000      -2.53730000       2.13140000
