17
Properties=species:S:1:pos:R:3 gdb_68433=T pbc="F F F"
O       -0.12510000       1.38570000      -0.03540000
C       -0.05110000       0.00750000       0.02480000
C        0.35940000      -0.81810000       1.29290000
C       -0.38860000      -1.92720000       0.50350000
C       -1.35840000      -0.82230000       0.01600000
N        0.43340000      -2.14860000      -0.71460000
C        0.78100000      -0.74310000      -1.06770000
C        0.40210000      -0.39520000      -2.44160000
N        0.11920000      -0.10010000      -3.52230000
H        0.76410000       1.75740000      -0.03300000
H        1.42300000      -0.96670000       1.50640000
H       -0.17160000      -0.47060000       2.18070000
H       -0.73400000      -2.85250000       0.95830000
H       -2.04890000      -0.48870000       0.79090000
H       -1.86850000      -0.97610000      -0.93610000
H        1.27650000      -2.66790000      -0.49090000
H        1.85120000      -0.52880000      -0.95280000
