15
Properties=species:S:1:pos:R:3 gdb_37105=T pbc="F F F"
C        0.21610000       1.52380000       0.00200000
C        1.48220000       0.68440000      -0.05110000
N        2.08270000       0.22070000       1.16030000
C        1.11410000      -0.43740000       1.90770000
N       -0.02490000      -0.63920000       1.34560000
C        0.04700000       0.04460000       0.08150000
C        0.28800000      -0.71140000      -1.25730000
O        0.59010000       0.25920000      -2.26680000
C        1.63240000      -0.13980000      -1.37470000
H        0.05430000       2.06930000       0.92470000
H       -0.08010000       2.03320000      -0.90500000
H        2.86080000       0.68570000       1.60110000
H        1.35170000      -0.76290000       2.91740000
H       -0.14530000      -1.65570000      -1.56370000
H        2.55430000      -0.51780000      -1.80150000
