20
Properties=species:S:1:pos:R:3 gdb_73786=T pbc="F F F"
C        0.09090000       1.48800000       0.07020000
C       -0.00970000      -0.01260000       0.00460000
C       -1.20310000      -0.68070000       0.02180000
C       -2.53740000       0.02560000       0.07330000
C       -1.21600000      -2.14450000       0.06020000
O       -2.24000000      -2.81080000       0.07460000
C        0.15050000      -2.82650000       0.16610000
C        1.22980000      -2.03010000      -0.55610000
N        1.20350000      -0.65690000      -0.07130000
H        0.97490000       1.78880000       0.64240000
H        0.18620000       1.91590000      -0.93600000
H       -0.78830000       1.93140000       0.53710000
H       -2.65660000       0.76140000      -0.72930000
H       -3.32400000      -0.72390000      -0.03000000
H       -2.70190000       0.54810000       1.02440000
H        0.40020000      -2.90400000       1.23300000
H        0.06850000      -3.84070000      -0.22990000
H        2.22390000      -2.45010000      -0.37790000
H        1.04020000      -2.05900000      -1.64270000
H        1.98160000      -0.07780000      -0.34760000
