18
Properties=species:S:1:pos:R:3 gdb_45046=T pbc="F F F"
O        0.04110000       0.20970000      -0.75670000
C       -0.01460000       1.26330000      -0.16920000
C       -1.27520000       1.92080000       0.40650000
C       -0.82180000       3.25250000       0.98300000
C        0.14210000       3.22660000       2.13970000
C        0.67400000       3.42010000       0.74010000
C        1.16290000       2.18530000       0.04750000
C        2.51070000       1.56050000       0.19980000
N        2.16410000       2.26550000      -1.03200000
H       -1.99200000       2.05010000      -0.41240000
H       -1.74750000       1.25110000       1.13380000
H       -1.48570000       4.10320000       0.88940000
H        0.15260000       4.08470000       2.80240000
H        0.33530000       2.27900000       2.63620000
H        1.10320000       4.37120000       0.45090000
H        3.24170000       2.06090000       0.82870000
H        2.55810000       0.47500000       0.17980000
H        1.91050000       1.57630000      -1.74080000
