25
Properties=species:S:1:pos:R:3 gdb_60260=T pbc="F F F"
C       -0.06230000       1.60300000       0.05220000
C        0.04850000       0.07180000       0.07910000
C        0.85080000      -0.38420000       1.30650000
C       -1.35410000      -0.56370000       0.02010000
C       -1.40620000      -2.08880000      -0.17410000
C       -2.85240000      -2.65730000      -0.11540000
C       -2.89950000      -3.81640000      -1.14200000
C       -1.72670000      -3.51060000      -2.04380000
C       -0.92190000      -2.58690000      -1.52190000
H        0.92650000       2.07380000       0.06450000
H       -0.58940000       1.95000000      -0.84280000
H       -0.61450000       1.97000000       0.92600000
H        0.60190000      -0.23550000      -0.81930000
H        0.33110000      -0.11260000       2.23360000
H        1.01060000      -1.46630000       1.31970000
H        1.83600000       0.09350000       1.32810000
H       -1.89060000      -0.30880000       0.94590000
H       -1.92030000      -0.09710000      -0.79750000
H       -0.79900000      -2.55770000       0.61480000
H       -3.14110000      -2.96610000       0.89290000
H       -3.55160000      -1.87190000      -0.42490000
H       -2.76950000      -4.79610000      -0.65980000
H       -3.85400000      -3.86610000      -1.67850000
H       -1.55960000      -4.02810000      -2.98260000
H        0.00140000      -2.24240000      -1.97520000
