14
Properties=species:S:1:pos:R:3 gdb_127747=T pbc="F F F"
C        0.10300000       1.42000000       0.13250000
N        0.06180000      -0.02440000       0.03400000
N       -0.02740000      -0.66140000      -1.11960000
N       -0.04070000      -1.94540000      -0.84410000
C        0.04360000      -2.02160000       0.50370000
N        0.06430000      -3.17760000       1.26280000
C        0.00440000      -4.48820000       0.82740000
O       -0.07760000      -4.85830000      -0.31250000
N        0.11010000      -0.82890000       1.09360000
H        1.03460000       1.73220000       0.60930000
H        0.04750000       1.81350000      -0.88150000
H       -0.74420000       1.77520000       0.72320000
H        0.13160000      -3.02380000       2.25790000
H        0.04350000      -5.17340000       1.69740000
