21
Properties=species:S:1:pos:R:3 gdb_110675=T pbc="F F F"
O        0.41680000       0.30430000      -1.46810000
C        0.03010000       0.24360000      -0.09930000
C       -1.29980000      -0.48260000       0.07320000
C       -1.42340000      -1.98270000      -0.23190000
C       -1.03130000      -2.86130000       0.95060000
C       -0.12270000      -2.32160000       2.05360000
C       -0.86760000      -1.05520000       2.56380000
C       -1.92550000      -0.76800000       1.48470000
C       -2.35940000      -2.16590000       0.95470000
H        0.52380000      -0.60230000      -1.77410000
H        0.82320000      -0.21360000       0.50870000
H       -0.06640000       1.28610000       0.22590000
H       -2.04160000       0.04670000      -0.53550000
H       -1.52340000      -2.41590000      -1.22180000
H       -1.00970000      -3.92300000       0.72720000
H       -0.00910000      -3.06440000       2.84990000
H        0.88520000      -2.09550000       1.69100000
H       -1.36760000      -1.26700000       3.51540000
H       -0.19660000      -0.20760000       2.73540000
H       -2.70180000      -0.06950000       1.79790000
H       -3.33370000      -2.63200000       1.01340000
