18
Properties=species:S:1:pos:R:3 gdb_39737=T pbc="F F F"
C       -0.24850000       1.37920000      -0.32180000
N        1.09320000       0.91070000       0.12520000
C        0.02780000      -0.04680000      -0.09140000
C       -0.33420000      -1.05580000       1.03440000
C       -1.23720000      -2.30180000       0.67880000
C       -2.12790000      -2.37320000      -0.57550000
C       -1.31900000      -1.46320000      -1.48960000
C       -0.07380000      -1.27980000      -0.99510000
C        0.16960000      -2.21150000       0.21080000
H       -0.78920000       1.96990000       0.41300000
H       -0.36510000       1.71690000      -1.34920000
H        1.74790000       0.90360000      -0.65230000
H       -0.10560000      -0.86330000       2.07890000
H       -1.49090000      -2.90030000       1.55220000
H       -2.25680000      -3.41880000      -0.88930000
H       -3.13230000      -1.94940000      -0.45510000
H       -1.82320000      -0.70140000      -2.07780000
H        1.00910000      -2.87070000       0.38470000
