23
Properties=species:S:1:pos:R:3 gdb_114202=T pbc="F F F"
C        0.23690000       1.27520000      -0.51840000
C       -0.06960000      -0.20760000      -0.28690000
C       -1.45790000      -0.44600000       0.30770000
C       -2.63710000      -0.32290000      -0.71110000
C       -2.72360000      -1.85410000      -0.74950000
C       -3.84990000      -2.74190000      -1.17520000
C       -2.56270000      -2.72210000      -1.96800000
C       -1.83640000      -1.95640000       0.50000000
O       -0.82600000      -2.93350000       0.55280000
H        1.23240000       1.41230000      -0.95210000
H       -0.48860000       1.73240000      -1.19960000
H        0.20260000       1.83360000       0.42350000
H        0.02270000      -0.74630000      -1.24110000
H        0.68250000      -0.63870000       0.38530000
H       -1.56960000       0.15820000       1.21390000
H       -3.52770000       0.14740000      -0.28390000
H       -2.40390000       0.17590000      -1.65700000
H       -4.06040000      -3.62160000      -0.57470000
H       -4.72780000      -2.27890000      -1.61500000
H       -2.56350000      -2.24490000      -2.94290000
H       -1.91560000      -3.59110000      -1.89080000
H       -2.42780000      -2.10550000       1.40930000
H       -0.30960000      -2.86520000      -0.25750000
