21
Properties=species:S:1:pos:R:3 gdb_93781=T pbc="F F F"
C       -0.30790000       1.43520000      -0.01690000
C        0.03060000      -0.05260000       0.00060000
O        0.80090000      -0.31620000      -1.17490000
C        0.69430000      -1.61210000      -1.70160000
C        1.20270000      -2.76110000      -0.86180000
C        1.32350000      -4.04620000      -1.63970000
C        1.54640000      -2.70530000       0.43750000
C        1.44990000      -1.60260000       1.38710000
C        0.78230000      -0.45040000       1.24680000
H        0.61060000       2.02990000       0.00010000
H       -0.86670000       1.68910000      -0.92070000
H       -0.91010000       1.70240000       0.85690000
H       -0.90560000      -0.63410000      -0.05620000
H       -0.34640000      -1.83470000      -2.00710000
H        1.27790000      -1.58460000      -2.63220000
H        2.04860000      -3.95240000      -2.45880000
H        1.63650000      -4.87560000      -1.00150000
H        0.36660000      -4.31910000      -2.10480000
H        1.93970000      -3.62530000       0.86730000
H        1.95630000      -1.77730000       2.33400000
H        0.78830000       0.26570000       2.06470000
