15
Properties=species:S:1:pos:R:3 gdb_53991=T pbc="F F F"
N       -0.16120000       1.43850000       0.07580000
C        0.07380000       0.08580000      -0.10770000
N        1.15260000      -0.49640000      -0.44710000
C       -1.20890000      -0.76050000      -0.02550000
O       -2.01540000      -0.50500000      -1.17380000
C       -0.80610000      -2.25410000      -0.15840000
O       -0.76880000      -3.02500000       0.75460000
C       -1.93440000      -0.49530000       1.21910000
C       -2.53500000      -0.23060000       2.22610000
H        0.65840000       2.02820000       0.11520000
H       -0.85240000       1.66320000       0.78050000
H        1.94060000       0.15080000      -0.51540000
H       -2.06730000       0.45120000      -1.28880000
H       -0.59170000      -2.52510000      -1.20840000
H       -3.07300000      -0.03270000       3.12090000
