18
Properties=species:S:1:pos:R:3 gdb_94303=T pbc="F F F"
C       -0.35850000       1.46490000       0.01770000
C        0.17530000       0.05130000      -0.06230000
O        1.44070000      -0.03210000      -0.76220000
C        2.02490000      -0.84650000       0.27050000
C        0.80230000      -0.62820000       1.18300000
C        0.91370000       0.06170000       2.57170000
C        0.20540000      -1.19920000       3.12730000
O       -0.15620000      -1.59450000       4.20020000
N        0.13930000      -1.73440000       1.85910000
H        0.36900000       2.13360000       0.48680000
H       -0.56970000       1.84200000      -0.98760000
H       -1.29050000       1.49290000       0.59260000
H       -0.56910000      -0.60880000      -0.53500000
H        2.16250000      -1.88990000      -0.04660000
H        2.98450000      -0.44920000       0.62110000
H        1.93070000       0.20700000       2.94060000
H        0.34400000       0.98430000       2.69120000
H       -0.22690000      -2.61160000       1.51720000
