13
Properties=species:S:1:pos:R:3 gdb_112151=T pbc="F F F"
O       -0.12130000       1.45240000      -0.04110000
C       -0.04090000       0.04800000      -0.07860000
C       -1.43420000      -0.57660000      -0.01760000
O       -2.11260000      -0.09680000       1.14200000
C       -3.11590000       0.74260000       0.76650000
O       -3.79720000       1.36480000       1.51550000
C       -3.17510000       0.68320000      -0.76390000
O       -3.92730000       1.24050000      -1.49540000
O       -2.20110000      -0.17980000      -1.14720000
H       -0.26220000       1.72410000       0.87200000
H        0.41950000      -0.23360000      -1.03030000
H        0.56540000      -0.36900000       0.73670000
H       -1.40160000      -1.66970000       0.01820000
