20
Properties=species:S:1:pos:R:3 gdb_99083=T pbc="F F F"
C        0.08290000       1.55360000       0.19120000
C        0.19110000       0.04000000       0.02140000
C        0.82230000      -0.37840000      -1.29780000
O        1.30840000       0.40840000      -2.07320000
C        0.80310000      -1.88950000      -1.59290000
N        1.55790000      -2.27680000      -2.75360000
C        3.01000000      -2.21600000      -2.69660000
C        0.93330000      -2.61100000      -3.92130000
O        1.48530000      -2.91080000      -4.95680000
H        1.06630000       2.02320000       0.11630000
H       -0.54620000       1.99020000      -0.58890000
H       -0.35000000       1.80260000       1.16370000
H        0.79440000      -0.40430000       0.82630000
H       -0.79110000      -0.44540000       0.10530000
H        1.15500000      -2.42960000      -0.70170000
H       -0.24550000      -2.18400000      -1.72980000
H        3.38680000      -2.84760000      -1.88300000
H        3.39100000      -2.58440000      -3.64890000
H        3.35010000      -1.18800000      -2.54170000
H       -0.16990000      -2.59210000      -3.81200000
