14
Properties=species:S:1:pos:R:3 gdb_4872=T pbc="F F F"
N       -0.14430000      -0.06700000      -0.55980000
H        0.27370000      -0.46610000       0.27770000
H        0.58210000      -0.07650000      -1.27080000
H       -0.84770000      -0.73210000      -0.86990000
C       -0.53150000       2.23910000       1.80040000
C        0.06440000       1.53670000       2.76350000
C        0.31080000       1.86480000       4.16070000
N        0.92150000       0.92210000       4.78820000
C        1.12460000      -0.11370000       3.83040000
O        1.65160000      -1.16800000       3.98270000
O        0.59240000       0.28190000       2.59570000
H       -0.91770000       3.22430000       2.03180000
H       -0.63150000       1.83530000       0.79640000
H        0.01820000       2.79580000       4.63470000
