18
Properties=species:S:1:pos:R:3 gdb_11759=T pbc="F F F"
O        0.20490000       1.33800000       0.15190000
C        0.06610000      -0.05060000      -0.12600000
C       -1.36280000      -0.50070000      -0.11330000
C       -2.07700000      -0.92550000       1.14450000
C       -1.93540000      -1.91940000       0.02350000
C       -2.95220000      -1.62760000      -1.07190000
O       -4.28940000      -1.82450000      -0.66440000
C       -2.40810000      -0.15900000      -1.18430000
H       -0.24470000       1.50520000       0.98710000
H        0.50620000      -0.19040000      -1.12020000
H        0.65230000      -0.66280000       0.57960000
H       -1.44000000      -1.12180000       2.00210000
H       -3.05590000      -0.52490000       1.39060000
H       -1.41290000      -2.85890000       0.15850000
H       -2.73120000      -2.19650000      -1.98490000
H       -4.86540000      -1.56850000      -1.39210000
H       -3.12130000       0.62850000      -0.92260000
H       -1.97500000       0.06000000      -2.16380000
