15
Properties=species:S:1:pos:R:3 gdb_6754=T pbc="F F F"
N       -0.05390000       1.34110000       0.02990000
C        0.05530000      -0.01980000       0.00610000
O        1.12180000      -0.60400000      -0.01420000
C       -1.22520000      -0.71170000       0.01420000
C       -2.25730000      -1.33500000       0.01870000
C       -3.48080000      -2.12140000       0.02380000
C       -3.21280000      -3.63150000       0.01330000
O       -4.47880000      -4.26630000       0.01930000
H        0.79020000       1.88840000      -0.00630000
H       -0.94750000       1.79940000       0.00500000
H       -4.08310000      -1.87840000       0.90780000
H       -4.09650000      -1.86880000      -0.84820000
H       -2.62660000      -3.89180000      -0.88000000
H       -2.61340000      -3.90170000       0.89490000
H       -4.34040000      -5.21770000       0.01350000
