23
Properties=species:S:1:pos:R:3 gdb_101744=T pbc="F F F"
C        0.01180000       1.54260000       0.11240000
C       -0.02070000       0.01270000       0.08660000
C       -1.43850000      -0.55920000      -0.02920000
O       -2.10850000      -0.06910000      -1.19260000
C       -1.45650000      -2.09380000       0.01000000
C       -2.86490000      -2.65790000       0.06750000
C       -3.04040000      -4.17450000       0.30600000
C       -3.83470000      -3.74070000       1.55350000
O       -3.52170000      -2.35200000       1.32710000
H        1.03910000       1.91780000       0.14390000
H       -0.48030000       1.95410000      -0.77260000
H       -0.51400000       1.93020000       0.99190000
H        0.57800000      -0.36220000      -0.75770000
H        0.44870000      -0.39030000       0.99260000
H       -2.04410000      -0.18970000       0.80730000
H       -1.58780000      -0.33520000      -1.95950000
H       -0.94770000      -2.48810000      -0.88320000
H       -0.89490000      -2.44800000       0.88330000
H       -3.45180000      -2.26600000      -0.77250000
H       -3.59560000      -4.72290000      -0.45640000
H       -2.10840000      -4.70240000       0.52160000
H       -4.91510000      -3.92890000       1.50220000
H       -3.46230000      -4.09440000       2.52220000
