17
Properties=species:S:1:pos:R:3 gdb_10353=T pbc="F F F"
N       -0.01610000       0.90710000       0.10840000
H        0.16940000      -0.08460000       0.21440000
H        1.23080000       2.09840000       0.28310000
H       -0.56110000       1.02250000      -0.74110000
C       -0.75080000       1.43870000       1.27390000
C       -0.74770000       2.97730000       1.26790000
C       -1.62530000       3.54620000       2.40010000
O       -1.79650000       4.93720000       2.30650000
C        0.66850000       3.58050000       1.33240000
O        1.62210000       2.92940000       0.67270000
O        0.90830000       4.60480000       1.93430000
H       -1.78890000       1.08160000       1.31840000
H       -0.24620000       1.07140000       2.17440000
H       -1.18310000       3.32230000       0.31780000
H       -2.62270000       3.09540000       2.33940000
H       -1.19080000       3.24940000       3.36960000
H       -0.89660000       5.29750000       2.33580000
