13
Properties=species:S:1:pos:R:3 gdb_3715=T pbc="F F F"
C       -0.18200000       1.56920000      -0.03300000
C        0.09790000       0.05750000       0.02740000
C        0.82010000      -0.44880000      -1.17420000
C        2.03620000      -1.03310000      -1.36190000
N        2.16660000      -1.27720000      -2.70760000
N        1.14820000      -0.89360000      -3.33190000
O        0.23140000      -0.34030000      -2.36580000
H        0.75030000       2.13810000      -0.09240000
H       -0.78720000       1.81710000      -0.90840000
H       -0.72250000       1.88920000       0.86170000
H        0.69530000      -0.18590000       0.91110000
H       -0.84900000      -0.48720000       0.12330000
H        2.80520000      -1.29150000      -0.65450000
