25
Properties=species:S:1:pos:R:3 gdb_120140=T pbc="F F F"
C        0.18420000       1.66780000       0.49070000
C        0.03590000       0.14490000       0.53360000
C       -1.36730000      -0.33630000       0.13650000
C       -1.48100000      -1.84950000       0.16590000
C       -1.85040000      -2.68800000       1.35890000
C       -3.01130000      -2.07030000       2.15390000
C       -3.92760000      -2.19710000       0.88760000
C       -4.75880000      -1.01960000       0.38780000
C       -2.71800000      -2.71000000       0.08750000
H        1.19420000       1.98020000       0.77430000
H       -0.01460000       2.05690000      -0.51430000
H       -0.51890000       2.15420000       1.17620000
H        0.77720000      -0.31460000      -0.13400000
H        0.26890000      -0.22230000       1.54130000
H       -2.10010000       0.12690000       0.80430000
H       -1.60290000       0.02860000      -0.87300000
H       -0.67390000      -2.31930000      -0.39860000
H       -1.19470000      -3.46240000       1.73960000
H       -3.35170000      -2.69470000       2.98270000
H       -2.84480000      -1.05880000       2.53990000
H       -4.60180000      -3.04520000       1.05100000
H       -4.15580000      -0.12560000       0.21230000
H       -5.25640000      -1.27180000      -0.55570000
H       -5.53940000      -0.75950000       1.11210000
H       -2.78680000      -3.49020000      -0.66370000
