17
Properties=species:S:1:pos:R:3 gdb_123750=T pbc="F F F"
C       -0.05450000       1.52430000      -0.04770000
C        1.49960000       1.51050000      -0.04790000
C        1.43040000       0.09340000       0.57590000
C       -0.03170000      -0.02470000       0.07570000
N        2.39370000      -0.90260000       0.13950000
N        3.15700000      -1.59640000       0.97900000
C        3.84840000      -2.35340000       0.13600000
N        3.52190000      -2.13150000      -1.15620000
N        2.59350000      -1.20530000      -1.13630000
H       -0.45970000       2.00070000       0.84870000
H       -0.54890000       1.94690000      -0.92310000
H        1.90110000       1.45930000      -1.06210000
H        2.03210000       2.27790000       0.51690000
H        1.50360000       0.10790000       1.66270000
H       -0.74820000      -0.50960000       0.74130000
H       -0.05980000      -0.50660000      -0.90380000
H        4.59040000      -3.06750000       0.45420000
