12
Properties=species:S:1:pos:R:3 gdb_132472=T pbc="F F F"
F        0.06740000       0.05200000       0.11840000
C       -0.06710000       1.36030000      -0.00550000
C       -1.22610000       2.02690000       0.18330000
N       -1.24550000       3.39880000       0.02530000
C       -0.17220000       4.00020000      -0.29390000
F       -0.18740000       5.32150000      -0.44720000
C        1.14660000       3.39250000      -0.52670000
N        2.25080000       3.94600000      -0.84760000
N        1.07950000       2.00840000      -0.34720000
H       -2.14140000       1.52280000       0.45450000
H        2.11850000       4.95110000      -0.93610000
H        1.93360000       1.48470000      -0.48260000
