13
Properties=species:S:1:pos:R:3 gdb_4305=T pbc="F F F"
C       -0.00260000       1.47630000      -0.01590000
C       -0.04320000      -0.01730000       0.00330000
N       -1.16790000      -0.63130000      -0.15930000
C       -1.18930000      -2.00750000      -0.13920000
N       -2.22870000      -2.70320000      -0.28740000
O        0.06820000      -2.66700000       0.06550000
C        1.15310000      -1.91170000       0.21980000
N        1.19930000      -0.63430000       0.20520000
H        0.67710000       1.81510000      -0.80520000
H       -0.99920000       1.88550000      -0.17610000
H        0.41060000       1.84480000       0.92920000
H       -2.00990000      -3.69710000      -0.23680000
H        2.04770000      -2.51310000       0.36790000
