17
Properties=species:S:1:pos:R:3 gdb_80267=T pbc="F F F"
C       -0.57750000       1.34910000      -0.05380000
C       -0.10170000      -0.08290000      -0.01150000
C        1.29880000      -0.48940000      -0.34630000
O        2.27860000       0.47040000      -0.66060000
C        2.79730000       1.33520000       0.26540000
O        3.59540000       2.15810000      -0.10070000
C        2.36830000       1.17580000       1.66710000
C        1.48610000       0.24660000       2.05350000
C        0.82970000      -0.64160000       1.08560000
H       -0.79200000       1.64500000      -1.08570000
H       -1.49550000       1.46690000       0.53040000
H        0.16030000       2.04840000       0.34330000
H       -0.84770000      -0.80780000      -0.32660000
H        1.46080000      -1.37510000      -0.95040000
H        2.86270000       1.84070000       2.36430000
H        1.24870000       0.12140000       3.10690000
H        0.59480000      -1.63850000       1.44390000
