20
Properties=species:S:1:pos:R:3 gdb_54186=T pbc="F F F"
C        0.49190000       0.79760000      -0.89900000
C       -0.07260000       0.09870000       0.31820000
O        0.46790000       0.17800000       1.40070000
C       -1.33050000      -0.76840000       0.16000000
C       -2.16440000      -0.73950000       1.44120000
C       -2.23030000      -0.66580000      -1.13580000
C       -1.91550000      -2.13480000      -1.43450000
N       -0.44700000      -2.21090000      -1.62590000
C       -1.01480000      -2.23000000      -0.25730000
H        1.43200000       1.28300000      -0.63330000
H        0.63820000       0.06900000      -1.70240000
H       -0.21410000       1.55020000      -1.26930000
H       -2.61470000       0.24760000       1.58940000
H       -2.97110000      -1.47790000       1.39270000
H       -1.53350000      -0.95420000       2.30590000
H       -3.27530000      -0.48400000      -0.87610000
H       -1.92400000       0.03480000      -1.91450000
H       -2.56740000      -2.87970000      -1.87310000
H       -0.21880000      -3.17530000      -1.86540000
H       -0.81020000      -3.05010000       0.42080000
