21
Properties=species:S:1:pos:R:3 gdb_91173=T pbc="F F F"
C       -0.45620000       1.51470000       0.05070000
C       -0.00180000       0.04840000       0.01280000
C        0.77050000      -0.37700000      -1.27950000
C        2.25370000      -0.54590000      -0.84900000
C        2.88460000       0.83410000      -0.72440000
C        2.84060000       1.26930000       0.53540000
C        2.28910000       0.22220000       1.44580000
C        0.90980000      -0.40020000       1.16370000
C        2.15600000      -1.03660000       0.61830000
H        0.38480000       2.20440000      -0.04460000
H       -1.15830000       1.72330000      -0.76410000
H       -0.96970000       1.73540000       0.99290000
H       -0.91010000      -0.56250000       0.08240000
H        0.38480000      -1.33680000      -1.64170000
H        0.65220000       0.34610000      -2.09350000
H        2.80230000      -1.21980000      -1.51310000
H        3.18060000       1.41840000      -1.58880000
H        3.13720000       2.25370000       0.87930000
H        2.62240000       0.17920000       2.47780000
H        0.42690000      -0.83110000       2.03570000
H        2.53470000      -2.00270000       0.92900000
