16
Properties=species:S:1:pos:R:3 gdb_69392=T pbc="F F F"
O        0.18930000       1.33510000      -0.33730000
C        0.04400000       0.01580000      -0.01020000
C       -0.32150000      -0.99540000      -1.06950000
C       -1.19240000      -0.89170000       0.15910000
N       -0.52570000      -1.51800000       1.30130000
C       -0.64010000      -2.78410000       1.82020000
N        0.20020000      -3.23250000       2.66840000
C        0.62000000      -0.67240000       1.20630000
N        1.66450000      -0.50510000       1.88420000
H        0.27080000       1.83930000       0.48110000
H       -0.73430000      -0.52910000      -1.96020000
H        0.28350000      -1.87980000      -1.24870000
H       -2.24580000      -0.64890000       0.18140000
H       -1.52910000      -3.31040000       1.45070000
H       -0.05190000      -4.17490000       2.95660000
H        1.69930000      -1.18050000       2.65060000
