19
Properties=species:S:1:pos:R:3 gdb_35362=T pbc="F F F"
C       -0.06100000      -1.24530000      -0.14460000
C       -0.04230000      -0.04580000      -0.05570000
C       -0.00470000       1.40490000       0.05770000
C       -0.61490000       1.96970000       1.38350000
C        0.25440000       3.18730000       1.68900000
C        1.74060000       2.98220000       1.94040000
C        2.20930000       1.65460000       1.34220000
C        1.41980000       2.01270000       0.04140000
C        1.23990000       3.45530000       0.58460000
H       -0.08320000      -2.30350000      -0.22670000
H       -0.55810000       1.83680000      -0.78660000
H       -1.66410000       2.24510000       1.24590000
H       -0.57850000       1.22100000       2.18010000
H       -0.18690000       4.03510000       2.20140000
H        2.25560000       3.55230000       2.70510000
H        3.28740000       1.65730000       1.16390000
H        1.93750000       0.72320000       1.85040000
H        1.94800000       1.86590000      -0.89980000
H        1.37670000       4.39220000       0.06130000
