14
Properties=species:S:1:pos:R:3 gdb_46463=T pbc="F F F"
O       -0.00850000       0.01800000       0.28950000
C        0.01410000       1.18660000       0.04270000
O       -1.11450000       1.92440000      -0.16270000
C       -0.82690000       3.23930000      -0.66050000
C        0.68780000       3.40680000      -0.57270000
N        1.14050000       3.22990000       0.82640000
C        1.20940000       2.08690000      -0.11310000
C        1.37750000       4.27740000      -1.47040000
C        1.93440000       5.03460000      -2.22040000
H       -1.17240000       3.30740000      -1.69620000
H       -1.35640000       3.96760000      -0.04190000
H        2.07670000       3.62230000       0.91620000
H        2.16040000       1.66800000      -0.41360000
H        2.43270000       5.69670000      -2.88530000
