23
Properties=species:S:1:pos:R:3 gdb_116500=T pbc="F F F"
C        0.09880000       1.55860000       0.15970000
C        0.01470000       0.03920000       0.00030000
C       -1.42320000      -0.48680000      -0.04650000
C       -1.44030000      -2.01730000      -0.18600000
O       -2.59510000      -2.60460000      -0.75970000
C       -3.87640000      -2.10190000      -0.41960000
C       -4.04770000      -1.53420000       0.99210000
C       -3.45840000      -0.13190000       1.17700000
O       -2.04780000      -0.07360000       1.16440000
H        1.14040000       1.88950000       0.21210000
H       -0.37160000       2.07060000      -0.68760000
H       -0.41200000       1.87820000       1.07050000
H        0.52420000      -0.27210000      -0.91890000
H        0.53470000      -0.45240000       0.83260000
H       -1.94580000      -0.03610000      -0.90820000
H       -0.61970000      -2.33230000      -0.83950000
H       -1.24400000      -2.43130000       0.81570000
H       -4.17950000      -1.32680000      -1.14440000
H       -4.55800000      -2.94820000      -0.56020000
H       -5.12610000      -1.46630000       1.18570000
H       -3.63360000      -2.22190000       1.73840000
H       -3.87370000       0.53300000       0.39890000
H       -3.75530000       0.27340000       2.14960000
