11
Properties=species:S:1:pos:R:3 gdb_20479=T pbc="F F F"
C        0.23560000       1.55250000       0.09750000
O        1.13110000       0.50230000      -0.24760000
C       -0.21040000       0.14740000       0.07830000
C       -0.41250000      -0.61550000       1.32560000
N        0.24420000      -0.46110000       2.44100000
O       -0.29200000      -1.37330000       3.27920000
N       -1.29520000      -2.07050000       2.60990000
N       -1.36320000      -1.61510000       1.44090000
H        0.42220000       2.02910000       1.05760000
H       -0.06090000       2.20920000      -0.71840000
H       -0.81860000      -0.21170000      -0.74870000
