20
Properties=species:S:1:pos:R:3 gdb_63802=T pbc="F F F"
C       -0.10550000       1.54710000      -0.00170000
C       -0.01060000       0.01920000      -0.01300000
O       -1.31070000      -0.56090000       0.01210000
C        0.86830000      -0.49390000      -1.20020000
C        2.23060000      -0.75360000      -0.57420000
C        2.25280000      -0.34690000       0.84790000
C        0.75870000      -0.50640000       1.21110000
C        1.00980000      -2.02570000       1.07620000
N        2.37500000      -1.80210000       0.48020000
H        0.88850000       2.00490000       0.02550000
H       -0.60970000       1.91000000      -0.90600000
H       -0.67320000       1.88870000       0.86870000
H       -1.80750000      -0.21460000      -0.73610000
H        0.42780000      -1.39930000      -1.63010000
H        0.94700000       0.24680000      -2.00290000
H        3.12550000      -0.67390000      -1.18180000
H        3.03160000       0.20030000       1.36570000
H        0.38480000      -0.13380000       2.16430000
H        1.14110000      -2.52520000       2.03830000
H        0.31280000      -2.60190000       0.46160000
