16
Properties=species:S:1:pos:R:3 gdb_27355=T pbc="F F F"
C        0.12410000       1.47330000       0.01400000
C       -0.03690000      -0.00860000      -0.02410000
C       -1.17870000      -0.70600000      -0.11560000
C       -1.16080000      -2.17020000      -0.14080000
O       -2.15670000      -2.85490000      -0.22030000
N        0.12870000      -2.76480000      -0.06470000
C        1.16070000      -2.02470000       0.02000000
C        2.55350000      -2.56260000       0.10390000
O        1.16580000      -0.65510000       0.04690000
H        0.74490000       1.81330000      -0.82180000
H       -0.84840000       1.96400000      -0.04340000
H        0.62520000       1.78140000       0.93790000
H       -2.13310000      -0.19890000      -0.17210000
H        2.52050000      -3.65050000       0.08590000
H        3.15290000      -2.19490000      -0.73510000
H        3.03760000      -2.21990000       1.02400000
