18
Properties=species:S:1:pos:R:3 gdb_88242=T pbc="F F F"
C       -0.55350000       1.33840000       0.52400000
C        0.00940000      -0.00140000       0.11270000
C        1.41820000      -0.13250000      -0.38270000
C        1.04580000      -0.72370000       0.97300000
C        1.54300000      -0.13660000       2.18130000
C        1.95710000       0.34330000       3.20540000
C        2.46360000       0.92170000       4.44680000
C        1.43750000       1.64650000       5.21080000
N        0.64040000       2.22050000       5.81780000
H        0.20600000       1.95380000       1.01380000
H       -0.92320000       1.88610000      -0.34940000
H       -1.38560000       1.22010000       1.22560000
H       -0.71180000      -0.67290000      -0.34560000
H        1.63880000      -0.82840000      -1.18430000
H        2.04050000       0.75560000      -0.36960000
H        0.95420000      -1.80540000       1.00610000
H        2.87830000       0.13790000       5.09410000
H        3.29000000       1.61620000       4.24550000
