17
Properties=species:S:1:pos:R:3 gdb_6914=T pbc="F F F"
C        0.01480000       1.52090000      -0.12300000
C       -0.06290000       0.02590000       0.10080000
C       -1.21000000      -0.66350000      -0.60860000
O        1.19160000      -0.68200000       0.02730000
C        0.52440000      -0.63190000       1.28420000
C        1.22600000       0.10570000       2.41560000
C        2.21680000      -0.73760000       3.08570000
N        2.98760000      -1.41390000       3.61760000
H        0.89210000       1.96690000       0.34750000
H        0.07300000       1.73030000      -1.19640000
H       -0.88180000       2.01720000       0.26340000
H       -1.14520000      -0.49250000      -1.68840000
H       -1.18690000      -1.74120000      -0.43180000
H       -2.17300000      -0.27140000      -0.26440000
H        0.08710000      -1.58150000       1.59790000
H        1.72600000       1.00170000       2.04050000
H        0.48680000       0.42680000       3.15980000
