19
Properties=species:S:1:pos:R:3 gdb_110399=T pbc="F F F"
O        0.23410000       0.58980000       1.07250000
C       -0.07250000       0.34750000      -0.29550000
C       -1.44960000      -0.28040000      -0.34860000
C       -1.90870000      -0.99820000      -1.63640000
C       -1.09260000      -2.30090000      -1.31350000
C       -2.34020000      -3.18180000      -1.52430000
O       -2.43950000      -4.43270000      -0.89400000
C       -2.89820000      -1.91910000      -0.84090000
C       -1.62370000      -1.75540000       0.06880000
H        1.09680000       1.01210000       1.11750000
H       -0.07230000       1.28520000      -0.87550000
H        0.67080000      -0.32170000      -0.75690000
H       -2.18720000       0.40340000       0.08860000
H       -2.08620000      -0.58690000      -2.63170000
H       -0.05530000      -2.50520000      -1.58090000
H       -2.64570000      -3.34210000      -2.56320000
H       -2.18120000      -4.32820000       0.02840000
H       -3.92230000      -1.66580000      -0.56140000
H       -1.45950000      -2.19380000       1.05420000
