19
Properties=species:S:1:pos:R:3 gdb_77541=T pbc="F F F"
C       -0.17800000       1.66160000       0.03530000
C        0.01730000       0.15660000      -0.00240000
C        0.89570000      -0.58090000      -1.06220000
C        0.62880000      -0.83920000      -2.51040000
C        2.18560000      -0.06980000      -0.36710000
C        1.19860000      -0.56840000       0.72290000
O        0.92520000      -1.75150000      -0.13800000
C        1.41520000      -0.74820000       2.12620000
C        1.59250000      -0.85950000       3.31030000
H        0.74010000       2.22350000      -0.15350000
H       -0.91580000       1.96720000      -0.71460000
H       -0.56080000       1.96910000       1.01420000
H       -0.91940000      -0.38080000       0.16970000
H        0.62750000       0.10150000      -3.07030000
H        1.39840000      -1.49170000      -2.93390000
H       -0.34510000      -1.32080000      -2.64050000
H        3.05890000      -0.70880000      -0.50210000
H        2.43030000       0.99290000      -0.40410000
H        1.75020000      -0.96730000       4.35510000
