21
Properties=species:S:1:pos:R:3 gdb_102562=T pbc="F F F"
C       -1.74260000       0.27340000       2.02050000
C       -0.86420000      -0.70270000       1.28260000
O       -0.05170000      -0.17230000       0.22030000
C        0.60660000      -0.71640000       1.38610000
C        1.42170000       0.21900000       2.27600000
C        2.56530000      -0.57300000       2.91510000
O        3.18370000       0.25310000       3.88630000
C        1.95660000       1.44510000       1.50890000
O        0.92450000       2.30570000       1.06950000
H       -1.22470000       1.22170000       2.17880000
H       -2.65330000       0.47030000       1.44560000
H       -2.04250000      -0.13870000       2.99030000
H       -1.34440000      -1.64520000       1.01400000
H        1.09780000      -1.66570000       1.16050000
H        0.79620000       0.59820000       3.09170000
H        2.16670000      -1.49430000       3.37080000
H        3.28090000      -0.88010000       2.13350000
H        3.94110000      -0.21620000       4.24750000
H        2.59480000       2.02410000       2.18040000
H        2.58210000       1.10290000       0.66730000
H        0.39520000       1.78020000       0.45450000
