19
Properties=species:S:1:pos:R:3 gdb_62214=T pbc="F F F"
C       -0.11800000       1.66310000      -0.08790000
C        0.04540000       0.14000000       0.06950000
C       -1.28750000      -0.59740000       0.13460000
O       -1.98630000      -0.13080000       1.27290000
C       -3.25400000      -0.74180000       1.41530000
C       -3.92580000      -0.22550000       2.60050000
C       -4.50160000       0.18330000       3.57150000
C        0.92610000      -0.40660000      -1.03310000
O        0.62640000      -1.30460000      -1.77910000
H        0.85350000       2.16710000      -0.10100000
H       -0.63920000       1.90550000      -1.02050000
H       -0.70380000       2.05800000       0.74360000
H        0.58590000      -0.04050000       1.01170000
H       -1.86850000      -0.41300000      -0.78380000
H       -1.12010000      -1.68320000       0.19460000
H       -3.87560000      -0.55230000       0.52340000
H       -3.14690000      -1.83700000       1.49610000
H       -5.00660000       0.54770000       4.43170000
H        1.91340000       0.10400000      -1.12050000
