18
Properties=species:S:1:pos:R:3 gdb_103800=T pbc="F F F"
C       -0.54860000       1.77260000       0.81960000
C       -0.15210000       0.57320000      -0.03400000
C       -1.39760000      -0.21430000      -0.50470000
N       -1.00600000      -1.16200000      -1.55800000
H       -0.75730000      -2.06420000      -1.16650000
H       -1.77150000      -1.32500000      -2.20080000
H        0.42260000       0.34420000      -1.83680000
O        0.56060000       1.03600000      -1.16650000
C        0.79850000      -0.37010000       0.70590000
C        1.32800000      -0.14390000       2.03560000
O        0.28270000      -0.97660000       2.02450000
O        2.06670000       0.33580000       2.83070000
H        0.33740000       2.34800000       1.09950000
H       -1.21670000       2.42550000       0.25260000
H       -1.05870000       1.45090000       1.73220000
H       -1.89170000      -0.68220000       0.35660000
H       -2.09380000       0.50880000      -0.93980000
H        1.27570000      -1.12130000       0.07900000
