19
Properties=species:S:1:pos:R:3 gdb_109471=T pbc="F F F"
C       -0.05610000       1.58140000       0.03490000
C       -0.00370000       0.05210000      -0.01900000
N        0.71450000      -0.45650000      -1.17760000
C        0.08680000      -0.71480000      -2.39300000
O       -1.09260000      -0.57420000      -2.62060000
C        1.22740000      -1.19400000      -3.28970000
N        2.43880000      -1.15730000      -2.47290000
C        2.08250000      -0.73970000      -1.31490000
C        3.01920000      -0.56940000      -0.16450000
H        0.94620000       2.01630000       0.09530000
H       -0.55000000       1.97480000      -0.85740000
H       -0.62220000       1.90770000       0.91270000
H        0.45490000      -0.35530000       0.88660000
H       -1.01870000      -0.34930000      -0.09020000
H        1.02860000      -2.20670000      -3.65800000
H        1.32250000      -0.54920000      -4.17060000
H        4.02630000      -0.82120000      -0.49690000
H        3.01020000       0.45900000       0.21150000
H        2.74550000      -1.22590000       0.66880000
