17
Properties=species:S:1:pos:R:3 gdb_82667=T pbc="F F F"
O       -0.06690000       1.37670000      -0.00980000
C        0.02710000      -0.02810000      -0.10140000
C       -1.36210000      -0.64360000      -0.35870000
C       -1.77520000       0.04000000      -1.68800000
C       -0.62880000      -0.79980000      -2.27330000
C       -0.92950000      -1.92750000      -1.19250000
C        0.57530000      -2.08660000      -1.08290000
O        1.33950000      -3.00420000      -0.99810000
C        0.68210000      -0.58770000      -1.40100000
H        0.81110000       1.72630000       0.16990000
H        0.50670000      -0.44130000       0.79700000
H       -2.04140000      -0.71850000       0.48920000
H       -2.74320000      -0.32090000      -2.04500000
H       -1.72910000       1.12790000      -1.73910000
H       -0.49330000      -1.02120000      -3.32960000
H       -1.64070000      -2.73940000      -1.32540000
H        1.59190000      -0.12150000      -1.77310000
