14
Properties=species:S:1:pos:R:3 gdb_127507=T pbc="F F F"
C       -0.02630000       1.37870000      -0.07380000
N        0.01930000      -0.06890000      -0.02670000
N        0.11870000      -0.80120000      -1.14980000
C        0.12950000      -2.04490000      -0.68630000
O        0.21810000      -3.12330000      -1.47470000
C        0.03500000      -2.02980000       0.72400000
C        0.01100000      -3.16130000       1.65180000
O       -0.07210000      -3.07630000       2.85490000
N       -0.03330000      -0.73620000       1.09780000
H        0.88440000       1.76310000      -0.53910000
H       -0.89180000       1.70350000      -0.65610000
H       -0.10580000       1.73320000       0.95230000
H        0.26920000      -2.82140000      -2.39070000
H        0.07810000      -4.14560000       1.14100000
