15
Properties=species:S:1:pos:R:3 gdb_14302=T pbc="F F F"
N        0.05230000       1.43670000      -0.04440000
C        0.00180000       0.00650000       0.04790000
C       -0.48990000      -0.71730000       1.28400000
O       -1.26300000       0.06390000       2.18530000
C       -2.37680000       0.42410000       1.48140000
N       -3.20200000       1.29100000       2.14290000
N       -2.51760000      -0.02330000       0.28920000
C       -1.31670000      -0.76770000       0.01190000
H       -0.82460000       1.79980000      -0.40390000
H        0.19600000       1.85980000       0.86650000
H        0.81780000      -0.51910000      -0.44680000
H        0.04920000      -1.51640000       1.77560000
H       -3.19310000       1.20690000       3.14840000
H       -4.12210000       1.36110000       1.73570000
H       -1.41380000      -1.63410000      -0.63100000
