18
Properties=species:S:1:pos:R:3 gdb_70388=T pbc="F F F"
C        0.03650000       1.53340000       0.08850000
C       -0.02240000       0.04020000      -0.02730000
C       -0.93010000      -0.81980000       0.75780000
N        0.51710000      -0.90360000       1.04030000
C        1.06760000      -1.77790000      -0.04700000
C        0.59600000      -0.81100000      -1.17140000
O       -0.30710000      -1.42910000      -2.07260000
C        1.67600000      -0.14080000      -1.88580000
C        2.53980000       0.42550000      -2.50180000
H        1.03050000       1.91280000      -0.16540000
H       -0.68940000       2.00640000      -0.58350000
H       -0.19950000       1.84060000       1.11120000
H       -1.49090000      -0.34020000       1.55440000
H       -1.42850000      -1.66270000       0.28570000
H        2.15160000      -1.85830000       0.03230000
H        0.61710000      -2.77350000      -0.09980000
H       -0.47870000      -0.81550000      -2.79570000
H        3.31320000       0.91360000      -3.04260000
