15
Properties=species:S:1:pos:R:3 gdb_21653=T pbc="F F F"
N       -0.42380000       1.33280000       0.40030000
C        0.00810000       0.03030000       0.14630000
N       -0.67850000      -0.76780000      -0.66720000
N       -0.02240000      -1.95390000      -0.59430000
C        1.06550000      -1.91590000       0.20860000
C        1.90960000      -3.13480000       0.42130000
O        1.99580000      -3.93970000      -0.74970000
C        1.12400000      -0.63330000       0.71840000
H        0.33360000       1.99900000       0.46740000
H       -1.10160000       1.63670000      -0.28730000
H       -0.32280000      -2.73170000      -1.15570000
H        2.89930000      -2.83560000       0.79400000
H        1.46550000      -3.78850000       1.18130000
H        2.42210000      -3.41120000      -1.43330000
H        1.84930000      -0.23880000       1.41190000
