18
Properties=species:S:1:pos:R:3 gdb_74856=T pbc="F F F"
C        0.08530000       1.49390000       0.02830000
C       -0.00480000       0.00020000      -0.00340000
C       -0.12180000      -0.77740000      -1.09150000
C       -0.06000000      -2.22170000      -0.72560000
O        1.19120000      -2.60510000      -0.09760000
C        0.07990000      -2.27820000       0.73800000
C        0.07650000      -0.85310000       1.23010000
C        0.73240000      -0.41660000       2.49230000
N       -0.72520000      -0.57810000       2.44210000
H        1.08570000       1.82650000       0.33140000
H       -0.12390000       1.91920000      -0.95620000
H       -0.62460000       1.93490000       0.73950000
H       -0.19880000      -0.41840000      -2.11070000
H       -0.52900000      -2.99710000      -1.32270000
H       -0.31040000      -3.06870000       1.37230000
H        1.25780000      -1.14810000       3.09960000
H        1.15050000       0.58610000       2.52950000
H       -1.18060000       0.32860000       2.36470000
