15
Properties=species:S:1:pos:R:3 gdb_75984=T pbc="F F F"
O       -0.81570000       1.10000000      -1.19010000
C       -0.17140000       0.25580000      -0.23480000
C       -1.26900000      -0.66240000       0.32160000
O       -1.70990000      -0.53180000       1.43270000
C       -1.69710000      -1.76940000      -0.63430000
C       -0.93460000      -1.71450000      -1.95510000
O        0.48600000      -1.55840000      -1.74690000
C        0.91980000      -0.57400000      -0.92980000
O        2.09290000      -0.36420000      -0.78880000
H       -0.15040000       1.70240000      -1.54290000
H        0.28380000       0.82270000       0.58140000
H       -1.52150000      -2.72200000      -0.12120000
H       -2.77560000      -1.69700000      -0.80690000
H       -1.03340000      -2.64900000      -2.50880000
H       -1.29010000      -0.89040000      -2.57750000
