18
Properties=species:S:1:pos:R:3 gdb_18529=T pbc="F F F"
C        0.07820000       1.38020000      -0.01210000
O        0.13470000      -0.02540000      -0.02700000
C        0.56990000      -0.56960000       1.20230000
C        0.63390000      -2.07640000       1.05760000
C        1.72550000      -2.68750000       0.10260000
C        2.29430000      -3.43750000       1.31370000
O        2.65710000      -2.45290000       2.29050000
C        1.28440000      -2.85800000       2.21430000
H        1.06340000       1.82780000       0.19450000
H       -0.25780000       1.70620000      -0.99960000
H       -0.63040000       1.75350000       0.74490000
H        1.56380000      -0.17990000       1.47170000
H       -0.12560000      -0.29110000       2.01440000
H       -0.35620000      -2.47220000       0.81400000
H        1.29480000      -3.34190000      -0.65800000
H        2.41030000      -1.97950000      -0.36940000
H        2.81460000      -4.38720000       1.35700000
H        0.83250000      -3.24220000       3.12200000
