15
Properties=species:S:1:pos:R:3 gdb_81100=T pbc="F F F"
O        0.08410000       1.40870000      -0.11780000
C        0.09820000       0.03160000      -0.07530000
C       -0.02180000      -0.67050000       1.30440000
O       -1.42740000      -0.19060000       1.38710000
C       -1.30260000      -0.71340000       0.00970000
C       -2.45760000      -0.63390000      -0.92290000
O       -3.47200000      -0.02700000      -0.69320000
C       -0.57430000      -1.94460000       0.60140000
O        0.21020000      -2.68870000      -0.28040000
H       -0.58730000       1.68860000       0.52230000
H        0.82730000      -0.35460000      -0.78510000
H        0.58700000      -0.56110000       2.20230000
H       -2.29070000      -1.17440000      -1.88070000
H       -1.22180000      -2.54330000       1.24950000
H        0.61250000      -3.41750000       0.20210000
