17
Properties=species:S:1:pos:R:3 gdb_44796=T pbc="F F F"
N       -0.40030000       1.14130000       0.61890000
C       -0.23160000      -0.07010000       0.34120000
O        0.93090000      -0.77670000       0.04420000
C        0.14110000      -1.95080000      -0.30340000
C       -0.56500000      -2.42960000       0.91310000
C       -1.13720000      -1.25090000       0.11260000
N       -2.44080000      -1.32060000      -0.42700000
C       -3.47040000      -0.45990000       0.16830000
C       -2.94460000      -0.18000000      -1.19620000
H        0.48670000       1.64770000       0.64060000
H        0.42030000      -2.49390000      -1.19460000
H       -1.15950000      -3.32920000       0.78820000
H       -0.11650000      -2.28380000       1.89070000
H       -4.44170000      -0.92750000       0.30090000
H       -3.16320000       0.22080000       0.95720000
H       -2.30220000       0.68890000      -1.30390000
H       -3.52680000      -0.44590000      -2.07350000
