19
Properties=species:S:1:pos:R:3 gdb_46487=T pbc="F F F"
O        0.03020000      -0.06210000       0.15010000
C       -0.00850000       1.14200000      -0.01040000
C       -1.32620000       1.91120000      -0.07720000
C       -1.23370000       3.13650000      -0.99550000
C       -0.06270000       4.02700000      -0.61030000
C        0.05520000       5.39340000      -1.25660000
C       -0.31640000       5.30270000       0.19250000
C        1.17910000       3.28600000      -0.31580000
C        1.21650000       1.96330000      -0.08720000
H       -2.11370000       1.22030000      -0.38780000
H       -1.56190000       2.23070000       0.94800000
H       -1.09060000       2.79710000      -2.03000000
H       -2.16980000       3.70460000      -0.97710000
H        1.04600000       5.75230000      -1.51410000
H       -0.71660000       5.66560000      -1.96890000
H       -1.34290000       5.50550000       0.47830000
H        0.41960000       5.59260000       0.93400000
H        2.10200000       3.86380000      -0.29430000
H        2.15140000       1.44160000       0.08990000
