16
Properties=species:S:1:pos:R:3 gdb_28941=T pbc="F F F"
C       -0.02910000       1.48620000       0.01170000
C       -0.00090000      -0.00480000      -0.03540000
N       -0.01050000      -0.73830000      -1.12490000
C        0.01150000      -2.04910000      -0.70270000
C        0.03650000      -2.11500000       0.65990000
N        0.03780000      -0.79830000       1.08980000
C        0.02290000      -0.35680000       2.46730000
C       -1.33190000      -0.10270000       2.98480000
N       -2.39200000       0.10690000       3.39190000
H        0.86370000       1.90470000       0.49260000
H       -0.06640000       1.85570000      -1.01340000
H       -0.90560000       1.86600000       0.54900000
H        0.01280000      -2.86660000      -1.40710000
H        0.05550000      -2.93600000       1.35760000
H        0.50360000      -1.11470000       3.09270000
H        0.61030000       0.56090000       2.56770000
