27
Properties=species:S:1:pos:R:3 gdb_121904=T pbc="F F F"
C        0.11360000       1.51620000      -0.07910000
C        0.01360000      -0.01160000       0.06290000
C        0.69570000      -0.43130000       1.37610000
C       -1.44720000      -0.53390000      -0.03110000
C       -2.22010000       0.09860000      -1.20060000
C       -1.49260000      -2.07470000      -0.13450000
C       -2.86600000      -2.69580000       0.14670000
C       -2.84520000      -4.21740000       0.07870000
O       -4.15870000      -4.68760000       0.34620000
H        1.14830000       1.84570000       0.06190000
H       -0.21160000       1.86750000      -1.06110000
H       -0.49780000       2.02230000       0.67840000
H        0.57490000      -0.46050000      -0.77100000
H        1.73020000      -0.07360000       1.40420000
H        0.17430000       0.00330000       2.23780000
H        0.72350000      -1.51460000       1.51730000
H       -1.95350000      -0.24440000       0.90310000
H       -2.34830000       1.17610000      -1.07400000
H       -1.69550000      -0.06760000      -2.14980000
H       -3.21900000      -0.33510000      -1.29670000
H       -1.15430000      -2.36820000      -1.13900000
H       -0.77300000      -2.51470000       0.56450000
H       -3.21390000      -2.39950000       1.14420000
H       -3.61860000      -2.33870000      -0.56440000
H       -2.50280000      -4.54020000      -0.91870000
H       -2.12360000      -4.61410000       0.81220000
H       -4.14830000      -5.64810000       0.30350000
