18
Properties=species:S:1:pos:R:3 gdb_32246=T pbc="F F F"
C       -0.06260000       1.36080000      -0.09180000
O       -0.01160000      -0.04650000       0.01550000
C        0.63480000      -0.58850000       1.09570000
C        1.24470000       0.13970000       2.10930000
C        1.88780000      -0.52130000       3.16050000
C        1.91790000      -1.90830000       3.18620000
C        1.30490000      -2.63960000       2.16930000
C        0.65360000      -2.00090000       1.11510000
N       -0.01970000      -2.70340000       0.11530000
H        0.94200000       1.79950000      -0.15480000
H       -0.60800000       1.57910000      -1.01190000
H       -0.59370000       1.81140000       0.75660000
H        1.22810000       1.22210000       2.08840000
H        2.35980000       0.05710000       3.94670000
H        2.41680000      -2.43150000       3.99480000
H        1.32340000      -3.72560000       2.18950000
H        0.35610000      -3.62020000      -0.07740000
H       -0.16460000      -2.16300000      -0.72530000
