21
Properties=species:S:1:pos:R:3 gdb_95120=T pbc="F F F"
C       -0.03530000       1.61490000      -0.21840000
C        0.02880000       0.09570000      -0.03600000
C        0.76300000      -0.63630000      -1.18730000
C        1.29190000      -1.95450000      -0.58190000
C        1.55510000      -1.63650000       0.88190000
C        2.26880000      -0.37410000       1.22740000
C        0.74900000      -0.36870000       1.22870000
C        0.06030000      -0.32020000       2.53610000
O        0.57480000      -0.56990000       3.60240000
H        0.97020000       2.04880000      -0.24450000
H       -0.53830000       1.87650000      -1.15520000
H       -0.58400000       2.09560000       0.59820000
H       -1.00050000      -0.28800000       0.02190000
H        0.11400000      -0.80110000      -2.05140000
H        1.59710000      -0.01850000      -1.53880000
H        0.53150000      -2.74130000      -0.64640000
H        2.18170000      -2.32470000      -1.10290000
H        1.58070000      -2.44190000       1.60750000
H        2.72020000      -0.32210000       2.21160000
H        2.77960000       0.18660000       0.45190000
H       -1.02010000      -0.05010000       2.47810000
