20
Properties=species:S:1:pos:R:3 gdb_112128=T pbc="F F F"
C       -0.29910000       1.81200000       0.42730000
C       -0.40280000       0.29840000       0.23270000
C        0.68100000      -0.50380000       1.00280000
C        0.33090000      -1.97060000       0.97140000
C        0.91610000      -2.95150000       0.29230000
C        2.09510000      -2.81130000      -0.62560000
O        3.17720000      -1.99150000      -0.17190000
C        2.97790000      -0.69050000       0.15960000
N        1.99400000      -0.04310000       0.60150000
H        0.67800000       2.17790000       0.10500000
H       -1.07400000       2.33110000      -0.14540000
H       -0.42540000       2.08240000       1.48170000
H       -1.38720000      -0.05510000       0.56200000
H       -0.32090000       0.04420000      -0.83100000
H        0.59380000      -0.18720000       2.05500000
H       -0.54510000      -2.21720000       1.57050000
H        0.50140000      -3.95460000       0.35650000
H        2.55670000      -3.78720000      -0.79580000
H        1.76960000      -2.43330000      -1.60630000
H        3.92150000      -0.16180000       0.01080000
