17
Properties=species:S:1:pos:R:3 gdb_72948=T pbc="F F F"
O       -0.28630000       1.34190000      -0.20900000
C        0.01860000       0.00390000       0.01650000
C       -1.22480000      -0.87950000       0.19000000
O       -0.67170000      -1.50560000       1.37250000
C        0.48130000      -0.65640000       1.36320000
C        1.73230000      -1.25000000       0.62210000
O        1.57320000      -2.57040000       0.08480000
C        1.22770000      -2.05020000      -1.22120000
C        1.27080000      -0.59740000      -0.70820000
H        0.53240000       1.84310000      -0.28680000
H       -2.11150000      -0.27990000       0.42760000
H       -1.47040000      -1.60280000      -0.59370000
H        0.64970000      -0.13640000       2.31110000
H        2.70620000      -1.09220000       1.09560000
H        2.00990000      -2.27880000      -1.95570000
H        0.27190000      -2.43770000      -1.58910000
H        1.86280000       0.12330000      -1.27500000
