19
Properties=species:S:1:pos:R:3 gdb_19280=T pbc="F F F"
C       -0.75660000       1.51280000       0.00970000
C       -0.28340000       0.07340000      -0.09310000
C        0.56670000      -0.41980000      -1.31030000
C        0.94040000       0.51920000      -2.44330000
O       -0.24250000       0.76610000      -3.19430000
C        1.63270000      -0.80170000      -0.28670000
C        2.01580000       0.33360000       0.57490000
N        0.77190000      -0.38610000       0.89650000
H        0.05350000       2.23930000      -0.10230000
H       -1.48850000       1.71520000      -0.77750000
H       -1.22830000       1.68560000       0.98240000
H       -1.14260000      -0.58690000       0.04890000
H        0.10350000      -1.30480000      -1.75480000
H        1.36350000       1.45760000      -2.05570000
H        1.71840000       0.04500000      -3.06440000
H       -0.03240000       1.39440000      -3.89140000
H        2.18010000      -1.73920000      -0.28110000
H        2.79530000       0.15620000       1.30990000
H        1.98000000       1.35440000       0.20590000
