16
Properties=species:S:1:pos:R:3 gdb_89215=T pbc="F F F"
O        0.48450000       1.00740000      -0.71690000
C        0.07270000      -0.19150000      -0.12870000
C        0.28330000      -0.40450000       1.41110000
C       -1.23680000      -0.66930000       1.60300000
O       -1.55490000      -1.79240000       2.33660000
C       -1.44750000      -0.37710000       0.06160000
O       -2.05100000       0.91260000       0.42660000
C       -2.03840000       0.59880000       1.77990000
N       -2.59460000       1.14820000       2.75740000
H       -0.12790000       1.69090000      -0.41570000
H        0.51270000      -1.00700000      -0.70890000
H        0.86350000      -1.29860000       1.64770000
H        0.69010000       0.44590000       1.96120000
H       -2.44730000      -1.68790000       2.68690000
H       -2.07370000      -0.92390000      -0.64190000
H       -3.12130000       1.97970000       2.48510000
