20
Properties=species:S:1:pos:R:3 gdb_72416=T pbc="F F F"
C       -0.04270000       1.50660000       0.01750000
C        0.03070000      -0.00700000       0.01850000
C        0.74350000      -0.66430000      -1.20110000
C        0.98010000      -2.12660000      -0.71170000
C        0.37400000      -2.11970000       0.72780000
C        0.74940000      -0.70290000       1.19810000
C       -1.13740000      -1.97530000       0.50230000
O       -1.99910000      -2.82380000       0.53350000
N       -1.29310000      -0.64430000       0.16220000
H        0.96340000       1.93660000      -0.00290000
H       -0.57890000       1.87890000      -0.86290000
H       -0.55830000       1.87410000       0.90960000
H        0.11860000      -0.61000000      -2.09670000
H        1.68540000      -0.15350000      -1.42450000
H        0.50570000      -2.87600000      -1.34930000
H        2.04710000      -2.36130000      -0.66320000
H        0.64310000      -2.97170000       1.34840000
H        1.82750000      -0.51680000       1.20310000
H        0.32080000      -0.42800000       2.16490000
H       -2.09190000      -0.35950000      -0.38640000
