17
Properties=species:S:1:pos:R:3 gdb_52733=T pbc="F F F"
C       -0.34890000       1.34760000       0.17990000
C       -0.02590000      -0.06690000       0.06680000
C        0.25210000      -1.23690000      -0.00400000
C        0.54320000      -2.66180000      -0.14320000
O       -0.57680000      -3.48620000       0.16880000
C        1.05580000      -2.96780000      -1.56240000
O        1.47110000      -4.32570000      -1.65500000
C        0.54870000      -5.23910000      -2.03070000
O        0.77900000      -6.40910000      -2.05220000
H        0.51750000       1.92050000       0.52740000
H       -0.66160000       1.76510000      -0.78300000
H       -1.16220000       1.50900000       0.89540000
H        1.32780000      -2.96170000       0.56180000
H       -1.36810000      -3.03180000      -0.14060000
H        0.26900000      -2.74620000      -2.29510000
H        1.93000000      -2.35510000      -1.79360000
H       -0.41010000      -4.78000000      -2.33300000
