16
Properties=species:S:1:pos:R:3 gdb_31403=T pbc="F F F"
C       -0.08110000       1.53070000       0.13430000
C        0.02750000       0.02040000      -0.04840000
C        0.73740000      -0.42620000      -1.29240000
N        1.20830000       0.43950000      -2.12600000
C        1.85470000       0.00110000      -3.25860000
N        2.34880000       0.76150000      -4.13290000
O        1.95800000      -1.41830000      -3.42990000
C        1.42750000      -2.20200000      -2.49240000
N        0.82340000      -1.81920000      -1.43380000
H        0.90730000       1.99500000       0.17380000
H       -0.62110000       1.99050000      -0.69690000
H       -0.61070000       1.76060000       1.06290000
H        0.54500000      -0.45190000       0.79790000
H       -0.96240000      -0.45620000      -0.06100000
H        2.77750000       0.22050000      -4.88250000
H        1.56300000      -3.25670000      -2.72310000
