21
Properties=species:S:1:pos:R:3 gdb_26370=T pbc="F F F"
C       -0.04520000       1.56020000       0.02790000
C        0.04410000       0.02930000      -0.00080000
C        0.70030000      -0.48900000      -1.28660000
N        0.73340000      -0.48140000       1.18640000
C        2.04700000      -0.22730000       1.53590000
C        2.25750000      -0.90200000       2.70590000
N        1.11730000      -1.56490000       3.09080000
C        0.21890000      -1.29680000       2.16380000
C       -1.18280000      -1.81370000       2.17350000
H        0.94900000       2.01430000      -0.03020000
H       -0.63010000       1.92030000      -0.82380000
H       -0.52310000       1.90630000       0.94820000
H       -0.97120000      -0.37340000       0.05120000
H        1.72050000      -0.10650000      -1.39040000
H        0.74570000      -1.58130000      -1.28890000
H        0.12800000      -0.16330000      -2.16040000
H        2.68710000       0.39400000       0.93190000
H        3.16260000      -0.94890000       3.29250000
H       -1.92720000      -1.00970000       2.21060000
H       -1.40880000      -2.43270000       1.29730000
H       -1.30280000      -2.42990000       3.06550000
