17
Properties=species:S:1:pos:R:3 gdb_128179=T pbc="F F F"
C       -0.07590000       1.46270000      -0.10220000
N        0.03200000       0.03930000       0.19410000
C       -1.12760000      -0.71870000       0.13340000
C       -1.33400000      -2.08930000       0.16630000
C       -1.13170000      -3.60140000       0.23600000
C       -2.70920000      -3.68580000       0.21470000
N       -2.67330000      -2.20840000       0.14080000
N       -3.33090000      -1.05660000       0.10530000
N       -2.36910000      -0.14150000       0.08870000
H        0.91200000       1.91620000       0.01010000
H       -0.45710000       1.67380000      -1.11190000
H       -0.75900000       1.92940000       0.61030000
H        0.81430000      -0.40510000      -0.26350000
H       -0.64550000      -4.06230000      -0.62700000
H       -0.67380000      -3.97950000       1.15270000
H       -3.15320000      -4.15530000      -0.66510000
H       -3.17680000      -4.06260000       1.12610000
