18
Properties=species:S:1:pos:R:3 gdb_10193=T pbc="F F F"
C        0.08300000       1.30430000      -0.57080000
N       -0.13670000       0.20420000       0.35690000
C       -1.37380000      -0.55220000       0.20200000
C       -1.27340000      -1.86120000      -0.61880000
C       -0.90100000      -1.65220000      -2.08910000
O       -0.80540000      -2.87680000      -2.79210000
C       -1.92560000      -0.87350000       1.53710000
N       -2.35660000      -1.14960000       2.57310000
H        1.03610000       1.78220000      -0.32800000
H        0.10480000       1.02770000      -1.63780000
H       -0.70150000       2.05680000      -0.43630000
H        0.66260000      -0.41420000       0.41370000
H       -2.10300000       0.10990000      -0.28320000
H       -0.53680000      -2.52440000      -0.15040000
H       -2.23950000      -2.37990000      -0.56120000
H       -1.62000000      -0.96540000      -2.56580000
H        0.08770000      -1.19140000      -2.17160000
H       -1.67430000      -3.29130000      -2.79030000
