17
Properties=species:S:1:pos:R:3 gdb_10814=T pbc="F F F"
C        0.03880000       1.59110000      -0.00590000
C       -0.00850000       0.05800000       0.00710000
C        0.63200000      -0.52860000      -1.25770000
N        0.77540000      -1.97360000      -1.14140000
C        1.30150000      -2.56490000      -0.01560000
O        1.70950000      -3.71370000      -0.00790000
C        1.27860000      -1.71060000       1.20060000
C        0.66300000      -0.52640000       1.22610000
H        1.07230000       1.95340000      -0.02120000
H       -0.47330000       1.99280000      -0.88610000
H       -0.44850000       2.00430000       0.88250000
H       -1.06510000      -0.25210000       0.03190000
H        0.01160000      -0.30850000      -2.13170000
H        1.60830000      -0.04150000      -1.41850000
H        0.91730000      -2.50970000      -1.98520000
H        1.74430000      -2.14940000       2.07540000
H        0.60610000       0.04450000       2.15080000
