16
Properties=species:S:1:pos:R:3 gdb_9699=T pbc="F F F"
N        0.10920000       1.57840000      -0.20890000
C       -0.04000000       0.14250000       0.05310000
C        0.52360000      -0.23060000       1.46430000
C       -0.53120000      -1.13720000       2.04420000
C       -1.64310000      -1.15480000       1.31420000
C       -1.55020000      -0.26350000       0.10260000
C        0.64810000      -0.67130000      -0.97530000
N        1.20070000      -1.26180000      -1.80260000
H        1.09600000       1.82330000      -0.23760000
H       -0.26190000       1.80170000      -1.12920000
H        1.51120000      -0.69870000       1.40340000
H        0.63330000       0.68950000       2.05210000
H       -0.37870000      -1.67800000       2.97090000
H       -2.54190000      -1.71240000       1.55060000
H       -2.15350000       0.64520000       0.22230000
H       -1.87630000      -0.75250000      -0.82080000
