12
Properties=species:S:1:pos:R:3 gdb_132208=T pbc="F F F"
N        0.09520000       1.29520000       0.12110000
C       -0.05850000      -0.04420000       0.04170000
N       -1.17350000      -0.65030000       0.01850000
C       -1.17950000      -2.04960000      -0.00410000
N       -2.28110000      -2.68050000      -0.01060000
N        0.08070000      -2.72610000      -0.02550000
C        1.10770000      -2.00980000      -0.01140000
F        2.31860000      -2.50140000      -0.03200000
O        1.19140000      -0.66200000       0.02590000
H        0.98770000       1.69520000      -0.11310000
H       -0.73280000       1.84860000      -0.02320000
H       -2.08240000      -3.68100000      -0.03100000
