16
Properties=species:S:1:pos:R:3 gdb_62360=T pbc="F F F"
C       -0.07830000       1.54610000      -0.00510000
C       -0.03020000       0.01710000      -0.00430000
C       -1.31200000      -0.57400000      -0.34850000
C       -2.38100000      -1.04350000      -0.63520000
C        1.23550000      -0.65980000      -0.65530000
N        2.02460000      -0.13320000       0.53890000
C        0.74980000      -0.67410000       1.17800000
C        0.95620000      -1.89100000       0.24220000
O        1.09250000      -3.07240000       0.26910000
H        0.89380000       1.96400000       0.25560000
H       -0.37340000       1.90890000      -0.99380000
H       -0.82550000       1.89560000       0.71310000
H       -3.32040000      -1.47070000      -0.88680000
H        1.59420000      -0.56670000      -1.67860000
H        2.82260000      -0.73900000       0.74560000
H        0.55450000      -0.59730000       2.24600000
