17
Properties=species:S:1:pos:R:3 gdb_32162=T pbc="F F F"
N       -0.12850000       1.35360000      -0.06450000
C       -0.05030000      -0.03560000      -0.04740000
C       -1.18920000      -0.84050000      -0.12460000
C       -1.06130000      -2.22430000      -0.03750000
C       -2.28160000      -3.11730000      -0.09290000
O       -3.28360000      -2.65080000      -0.98510000
C        0.21950000      -2.75710000       0.11050000
N        1.32190000      -2.00700000       0.18470000
C        1.18490000      -0.68810000       0.10910000
H        0.71830000       1.82750000      -0.34280000
H       -0.94110000       1.73440000      -0.52650000
H       -2.17300000      -0.39990000      -0.25730000
H       -1.97390000      -4.14690000      -0.33020000
H       -2.76890000      -3.15030000       0.88880000
H       -2.88910000      -2.60360000      -1.86250000
H        0.36250000      -3.83420000       0.16660000
H        2.09870000      -0.09770000       0.17060000
