17
Properties=species:S:1:pos:R:3 gdb_85480=T pbc="F F F"
C        0.18850000       1.63300000      -0.18900000
C        0.08370000       0.13420000       0.05140000
O        0.58320000      -0.58280000      -1.09640000
C        1.83920000      -1.06740000      -0.88900000
O        2.45590000      -1.63610000      -1.74020000
C        2.26350000      -0.75910000       0.54210000
C        0.93270000      -0.42120000       1.23900000
C        1.03410000       0.45400000       2.39380000
C        1.12710000       1.17170000       3.35350000
H        1.23120000       1.95240000      -0.27980000
H       -0.33180000       1.89270000      -1.11430000
H       -0.26550000       2.18220000       0.63930000
H       -0.96440000      -0.15530000       0.16160000
H        2.79580000      -1.60490000       0.97710000
H        2.94570000       0.09660000       0.53330000
H        0.46730000      -1.36350000       1.55300000
H        1.20820000       1.80430000       4.20290000
