19
Properties=species:S:1:pos:R:3 gdb_95091=T pbc="F F F"
C        0.00870000       1.57240000       0.02000000
C        0.02690000       0.04460000       0.01100000
C        0.79110000      -0.57440000      -1.18800000
C        1.30160000      -1.95350000      -0.71120000
C        1.51390000      -1.77330000       0.78020000
N        2.21150000      -0.52440000       1.12570000
C        0.72700000      -0.58000000       1.22050000
C        0.11210000      -0.51960000       2.51620000
N       -0.38930000      -0.44830000       3.55700000
H        1.02890000       1.96420000       0.07840000
H       -0.45480000       1.95970000      -0.89260000
H       -0.55700000       1.95940000       0.87340000
H       -1.00460000      -0.33090000       0.01680000
H        0.15910000      -0.64670000      -2.07630000
H        1.64080000       0.06560000      -1.43740000
H        0.54800000      -2.73420000      -0.86630000
H        2.21370000      -2.26500000      -1.22890000
H        1.62800000      -2.63280000       1.43270000
H        2.61050000      -0.60020000       2.05870000
