21
Properties=species:S:1:pos:R:3 gdb_84884=T pbc="F F F"
C        0.00590000       1.58350000      -0.00970000
C        0.00870000       0.04280000       0.00910000
C        0.68900000      -0.51720000      -1.21900000
C        1.89350000      -1.07930000      -1.16220000
C        2.66210000      -1.18230000       0.12510000
O        2.10850000      -0.38850000       1.16360000
C        0.70950000      -0.51160000       1.24050000
C        0.14690000      -0.34380000       2.61310000
C        0.17190000      -1.71910000       1.96850000
H        1.02990000       1.95940000       0.06650000
H       -0.42950000       1.96480000      -0.93900000
H       -0.57290000       1.98620000       0.82730000
H       -1.03380000      -0.30330000       0.02010000
H        0.16350000      -0.42790000      -2.16660000
H        2.36870000      -1.49330000      -2.04780000
H        2.72830000      -2.23920000       0.44080000
H        3.69070000      -0.82700000      -0.00880000
H        0.85570000      -0.15390000       3.41080000
H       -0.80780000       0.16030000       2.72020000
H       -0.76480000      -2.15620000       1.63900000
H        0.89660000      -2.42940000       2.35090000
