17
Properties=species:S:1:pos:R:3 gdb_56016=T pbc="F F F"
O        0.08920000      -0.24910000       0.22020000
C        0.66540000       0.73660000      -0.02450000
O        1.34720000       1.64870000      -0.26420000
C       -1.84200000       2.25780000      -0.08070000
N       -2.68600000       1.20970000       0.09490000
C       -3.01940000       0.35190000      -1.07200000
C       -4.15790000      -0.52200000      -0.52150000
N       -3.96630000      -0.51200000       0.94100000
H       -3.47630000      -1.35100000       1.25060000
C       -3.21890000       0.66340000       1.17690000
H       -1.66500000       2.87750000       0.78940000
H       -1.88020000       2.73310000      -1.05120000
H       -3.31330000       0.97880000      -1.91520000
H       -2.11850000      -0.20910000      -1.33550000
H       -5.12890000      -0.07150000      -0.75400000
H       -4.14550000      -1.53880000      -0.91760000
H       -3.07970000       1.08370000       2.15980000
