16
Properties=species:S:1:pos:R:3 gdb_12648=T pbc="F F F"
C       -0.35740000       1.50530000      -0.00240000
C        0.10230000       0.05090000      -0.01420000
C        0.93380000      -0.40620000      -1.23670000
C        1.66930000      -1.68410000      -0.77890000
C        1.94220000      -1.46140000       0.70130000
O        2.74110000      -2.01390000       1.40690000
C        0.97610000      -0.32960000       1.17450000
O        0.96880000       0.14390000       2.27890000
H        0.49590000       2.18310000      -0.10870000
H       -1.05440000       1.70550000      -0.82140000
H       -0.85180000       1.74000000       0.94360000
H       -0.77900000      -0.60830000       0.05810000
H        0.31600000      -0.56800000      -2.12260000
H        1.66340000       0.37260000      -1.48870000
H        1.01550000      -2.56260000      -0.86870000
H        2.58720000      -1.90860000      -1.32610000
