16
Properties=species:S:1:pos:R:3 gdb_126012=T pbc="F F F"
C       -0.19340000       1.59050000      -0.02740000
C        0.03630000       0.07920000       0.04390000
C        0.90110000      -0.48940000      -1.14770000
N        1.72290000      -1.62200000      -0.61040000
C        1.77360000      -1.34500000       0.76130000
C        0.86600000      -0.43330000       1.17890000
O        0.90220000      -0.33990000       2.49460000
N        1.96870000      -1.28060000       2.89960000
N        2.41610000      -1.83530000       1.85340000
H        0.75750000       2.13210000      -0.02300000
H       -0.73460000       1.85440000      -0.94140000
H       -0.78490000       1.93470000       0.82550000
H       -0.93960000      -0.42670000       0.05810000
H        0.27720000      -0.83440000      -1.97500000
H        1.55000000       0.31630000      -1.51790000
H        2.62510000      -1.70150000      -1.06400000
