21
Properties=species:S:1:pos:R:3 gdb_59447=T pbc="F F F"
C       -0.05510000       1.68800000       0.13100000
C       -0.03270000       0.17680000      -0.07940000
O        0.56840000      -0.06680000      -1.34130000
C        0.72490000      -0.50490000       1.06050000
C       -0.01070000      -1.27030000       2.11060000
C        0.92010000      -2.01260000       1.14820000
C        0.34540000      -2.97530000       0.16750000
C        0.90730000      -4.38320000       0.22450000
O       -0.52290000      -2.67700000      -0.63370000
H        0.96280000       2.09020000       0.09370000
H       -0.63880000       2.16800000      -0.65840000
H       -0.49480000       1.94260000       1.10030000
H       -1.06260000      -0.20120000      -0.08220000
H        0.30950000      -0.96600000      -1.57670000
H        1.60090000       0.04770000       1.39280000
H        0.29340000      -1.21380000       3.14970000
H       -1.07390000      -1.42070000       1.95190000
H        1.85690000      -2.33920000       1.58870000
H        0.82970000      -4.78730000       1.23980000
H        0.37470000      -5.02600000      -0.47690000
H        1.97380000      -4.36770000      -0.02980000
