21
Properties=species:S:1:pos:R:3 gdb_112769=T pbc="F F F"
C       -0.07810000       1.62590000       0.08340000
C        0.04950000       0.10840000      -0.09060000
C        0.69040000      -0.55710000       1.11640000
C       -0.08960000      -0.64210000       2.45430000
N        0.44250000      -2.00420000       2.64280000
C       -0.35760000      -3.01080000       3.30930000
C        0.77580000      -2.12160000       1.20850000
C       -0.22820000      -2.82060000       0.39050000
N       -1.03120000      -3.38770000      -0.21940000
H        0.90150000       2.09400000       0.23030000
H       -0.53860000       2.08400000      -0.79650000
H       -0.69860000       1.87650000       0.95070000
H       -0.93870000      -0.32940000      -0.27150000
H        0.64890000      -0.11140000      -0.98320000
H        1.69230000      -0.15400000       1.28860000
H        0.16970000       0.05980000       3.25300000
H       -1.18040000      -0.61420000       2.29310000
H       -1.34340000      -3.17380000       2.84220000
H        0.17930000      -3.96490000       3.31790000
H       -0.51360000      -2.70400000       4.34840000
H        1.75250000      -2.57770000       1.01150000
