19
Properties=species:S:1:pos:R:3 gdb_102934=T pbc="F F F"
C       -1.35700000      -0.16130000       0.01890000
C        0.16620000      -0.03290000      -0.03190000
C        0.79030000      -0.64670000      -1.30550000
C        2.30560000      -0.38670000      -1.39500000
O        2.54930000       1.01880000      -1.50200000
C        3.40100000       1.59410000      -0.63010000
O        3.67410000       2.75500000      -0.66600000
C        0.56020000      -2.08710000      -1.39380000
C        0.40600000      -3.27820000      -1.44690000
H       -1.82410000       0.34680000      -0.83170000
H       -1.66610000      -1.21030000      -0.00540000
H       -1.75330000       0.28880000       0.93360000
H        0.44980000       1.02390000       0.00360000
H        0.61260000      -0.51760000       0.84530000
H        0.33110000      -0.16340000      -2.17910000
H        2.81390000      -0.79810000      -0.51380000
H        2.71820000      -0.86680000      -2.28660000
H        3.80750000       0.87530000       0.10820000
H        0.25370000      -4.32780000      -1.50470000
