10
Properties=species:S:1:pos:R:3 gdb_33389=T pbc="F F F"
C        0.01830000      -1.20810000      -0.00470000
C        0.00220000      -0.01080000       0.00220000
C       -0.01780000       1.45970000       0.01020000
C        1.37100000       1.98880000      -0.00030000
N        2.45300000       2.38740000      -0.00840000
C       -0.73410000       1.96650000      -1.18930000
N       -1.29200000       2.34780000      -2.12370000
C       -0.71100000       1.95390000       1.22830000
N       -1.25080000       2.32520000       2.17720000
H        0.03250000      -2.27190000      -0.01080000
