16
Properties=species:S:1:pos:R:3 gdb_12655=T pbc="F F F"
C       -0.03440000       1.41610000       0.00680000
N        0.01940000      -0.02410000       0.05840000
C       -1.18460000      -0.82930000      -0.10060000
C       -0.70660000      -2.28560000       0.04230000
C        0.81120000      -2.19680000      -0.05330000
O        1.59990000      -3.10110000      -0.13560000
C        1.18990000      -0.72820000      -0.02300000
N        2.36590000      -0.23400000      -0.05990000
H        0.96530000       1.80160000       0.21180000
H       -0.35470000       1.77530000      -0.98190000
H       -0.73770000       1.80000000       0.75510000
H       -1.92760000      -0.55390000       0.65720000
H       -1.64640000      -0.65360000      -1.08380000
H       -0.96630000      -2.70670000       1.01920000
H       -1.10800000      -2.95820000      -0.71840000
H        3.03380000      -1.00650000      -0.08880000
