19
Properties=species:S:1:pos:R:3 gdb_59419=T pbc="F F F"
C        0.36640000       1.38660000       0.24120000
C       -0.23560000       0.04290000      -0.16760000
O       -1.57700000       0.16340000      -0.62240000
C        0.60900000      -0.62370000      -1.24170000
O        1.86510000      -1.17120000      -0.87140000
C        0.83940000      -2.08650000      -1.32660000
C        0.29040000      -3.09470000      -0.35200000
C        1.13710000      -2.59270000      -2.70900000
O        0.78640000      -3.66480000      -3.12900000
H        1.37860000       1.25160000       0.63290000
H        0.42700000       2.06490000      -0.61960000
H       -0.25220000       1.85870000       1.00900000
H       -0.28510000      -0.60800000       0.70890000
H       -1.61050000       0.87560000      -1.27070000
H        0.63220000      -0.05900000      -2.18080000
H        0.21350000      -2.67830000       0.65240000
H       -0.69760000      -3.43020000      -0.67800000
H        0.94240000      -3.97170000      -0.31620000
H        1.73140000      -1.87740000      -3.32070000
