16
Properties=species:S:1:pos:R:3 gdb_17906=T pbc="F F F"
O        0.00420000       0.04760000       0.02040000
C       -0.01320000       1.24390000       0.00680000
C       -1.16530000       2.26130000       0.02080000
C       -0.79910000       3.03830000       1.31220000
C        0.77560000       3.06780000       1.29170000
C        1.10540000       2.29870000       0.00200000
O        0.72690000       3.10310000      -1.12260000
C       -0.72500000       3.11110000      -1.17980000
H       -2.17260000       1.85450000      -0.03350000
H       -1.23270000       4.04180000       1.30670000
H       -1.17490000       2.51880000       2.19730000
H        1.17560000       4.08260000       1.23730000
H        1.20160000       2.57660000       2.17170000
H        2.12720000       1.94930000      -0.12920000
H       -1.04970000       2.68100000      -2.13520000
H       -1.08200000       4.14660000      -1.12200000
