21
Properties=species:S:1:pos:R:3 gdb_52710=T pbc="F F F"
C        0.07560000       1.44820000      -0.03100000
C        0.06830000      -0.00810000      -0.05540000
C        0.06900000      -1.21260000      -0.06480000
C        0.05210000      -2.67500000      -0.10110000
C       -1.31760000      -3.21870000       0.35380000
C        0.45890000      -3.17920000      -1.51060000
C        0.64460000      -4.67550000      -1.57880000
C        1.76830000      -5.28940000      -2.29760000
O        1.77410000      -5.20410000      -0.87220000
H        0.82790000       1.83190000       0.66720000
H        0.30130000       1.86320000      -1.01970000
H       -0.89660000       1.84720000       0.27960000
H        0.81420000      -3.04750000       0.59680000
H       -2.10590000      -2.91260000      -0.34170000
H       -1.30940000      -4.31090000       0.41140000
H       -1.57300000      -2.83030000       1.34280000
H       -0.30290000      -2.87310000      -2.23860000
H        1.39510000      -2.69050000      -1.79790000
H       -0.25760000      -5.27810000      -1.46480000
H        1.66930000      -6.29420000      -2.70650000
H        2.48920000      -4.65080000      -2.80700000
