20
Properties=species:S:1:pos:R:3 gdb_5839=T pbc="F F F"
C        0.07870000       1.51170000       0.07430000
C       -0.03270000      -0.01870000      -0.01450000
C        0.66580000      -0.66760000       1.19570000
C       -1.52650000      -0.42530000      -0.03260000
C        0.56580000      -0.48430000      -1.36020000
O        0.61060000       0.24290000      -2.32100000
C        1.06910000      -1.92680000      -1.45000000
O        1.35280000      -2.23630000      -2.78980000
H        1.12530000       1.82890000       0.12010000
H       -0.37090000       1.98410000      -0.80060000
H       -0.42730000       1.87520000       0.97460000
H        0.21910000      -0.29270000       2.12250000
H        0.56250000      -1.75680000       1.20580000
H        1.73320000      -0.42440000       1.22370000
H       -2.04370000       0.03170000      -0.88120000
H       -1.65610000      -1.51060000      -0.09820000
H       -2.01460000      -0.08710000       0.88760000
H        1.95930000      -2.00620000      -0.80290000
H        0.30950000      -2.59670000      -1.01340000
H        1.72080000      -3.12430000      -2.81550000
