18
Properties=species:S:1:pos:R:3 gdb_12932=T pbc="F F F"
O        0.13120000       1.27890000      -0.35550000
C        0.06550000      -0.02600000       0.20580000
C       -1.32600000      -0.60940000       0.12620000
C       -1.93860000      -1.21240000      -1.13350000
C       -0.90950000      -2.04090000      -1.91590000
C       -0.68830000      -2.93750000      -0.65350000
C       -1.69870000      -2.06650000       0.10790000
O       -2.65800000      -2.58990000       0.95820000
H       -0.25430000       1.22610000      -1.23660000
H        0.79950000      -0.69620000      -0.26490000
H        0.36760000       0.09010000       1.25270000
H       -2.06610000      -0.02700000       0.67230000
H       -2.87520000      -0.83700000      -1.52730000
H       -1.35380000      -2.59380000      -2.74570000
H       -0.03340000      -1.50340000      -2.29210000
H       -1.08350000      -3.94490000      -0.80080000
H        0.32530000      -3.01200000      -0.24700000
H       -2.33610000      -2.51990000       1.86340000
