18
Properties=species:S:1:pos:R:3 gdb_117442=T pbc="F F F"
O       -0.19040000       1.48140000       0.01200000
C        0.02400000       0.07910000       0.00220000
C       -1.34930000      -0.57740000       0.01180000
C       -1.29260000      -2.09220000       0.00290000
O       -0.24670000      -2.70320000      -0.01020000
C       -2.63360000      -2.81890000       0.01160000
C       -2.45600000      -4.34510000       0.00190000
C       -3.73670000      -5.04660000       0.01020000
N       -4.75790000      -5.58730000       0.01680000
H        0.66740000       1.91570000       0.00640000
H        0.58080000      -0.24440000      -0.88870000
H        0.59790000      -0.25420000       0.87850000
H       -1.91660000      -0.24560000       0.89140000
H       -1.93350000      -0.23590000      -0.85290000
H       -3.20510000      -2.49950000       0.89140000
H       -3.22140000      -2.49020000      -0.85400000
H       -1.88250000      -4.64970000      -0.87880000
H       -1.86620000      -4.65890000       0.86840000
