19
Properties=species:S:1:pos:R:3 gdb_72593=T pbc="F F F"
C       -0.29700000       1.53670000       0.07900000
C       -0.02690000       0.05370000       0.02710000
C        1.09270000      -0.50230000      -0.88060000
O        1.61730000      -1.32860000       0.17840000
C        0.64090000      -0.83960000       1.13690000
C        1.22970000      -0.43560000       2.45500000
C       -0.62500000      -1.70080000       1.06060000
N       -0.94720000      -2.78280000       1.62660000
N       -1.20450000      -0.82450000       0.13300000
H        0.63350000       2.09940000       0.20160000
H       -0.77220000       1.88000000      -0.84800000
H       -0.96680000       1.77960000       0.90840000
H        0.76300000      -1.08340000      -1.75050000
H        1.83090000       0.24390000      -1.20170000
H        2.04760000       0.27730000       2.31800000
H        0.46620000       0.01010000       3.09940000
H        1.62200000      -1.32250000       2.96270000
H       -1.84490000      -3.13810000       1.29080000
H       -1.81160000      -1.09300000      -0.63170000
