19
Properties=species:S:1:pos:R:3 gdb_40954=T pbc="F F F"
C       -0.00730000       1.49990000      -0.04320000
O        1.40560000       1.60870000       0.21490000
C        1.51500000       0.19500000       0.46770000
C        0.05710000      -0.04660000      -0.04340000
O       -0.84450000      -0.59090000       0.89170000
C       -0.95420000      -2.00770000       0.83460000
C       -1.51640000      -2.46220000      -0.51210000
C       -0.76640000      -1.77740000      -1.62300000
C       -0.03220000      -0.69130000      -1.39280000
H       -0.61730000       1.87960000       0.78570000
H       -0.29890000       1.98940000      -0.97860000
H        2.33400000      -0.26150000      -0.09860000
H        1.62280000      -0.03410000       1.53610000
H        0.02970000      -2.47390000       1.00260000
H       -1.60720000      -2.29120000       1.66400000
H       -1.42920000      -3.55220000      -0.60210000
H       -2.58860000      -2.23120000      -0.57400000
H       -0.82890000      -2.19700000      -2.62330000
H        0.54060000      -0.21590000      -2.18470000
