20
Properties=species:S:1:pos:R:3 gdb_99606=T pbc="F F F"
C       -0.11750000       1.59230000      -0.09310000
C       -0.07820000       0.06360000      -0.13160000
C        0.80440000      -0.50890000      -1.26530000
C        2.20370000      -0.09150000      -1.10090000
N        3.29910000       0.25260000      -0.96930000
C        0.70860000      -2.03400000      -1.36200000
O        1.10650000      -2.71550000      -0.20700000
C       -0.38870000      -2.63840000      -2.20360000
C        1.06170000      -2.71610000      -2.64450000
H        0.88230000       2.00980000       0.05820000
H       -0.51540000       2.00240000      -1.02770000
H       -0.75590000       1.94200000       0.72320000
H        0.29030000      -0.32150000       0.82560000
H       -1.08920000      -0.33590000      -0.27500000
H        0.45610000      -0.09090000      -2.21850000
H        0.40470000      -2.64020000       0.44860000
H       -0.84240000      -3.54930000      -1.82990000
H       -1.06230000      -1.98150000      -2.74410000
H        1.38310000      -2.10980000      -3.48420000
H        1.56000000      -3.67350000      -2.55380000
