18
Properties=species:S:1:pos:R:3 gdb_13187=T pbc="F F F"
O       -0.24860000       1.37770000      -0.00930000
C       -0.03940000      -0.00910000      -0.01610000
C        0.74600000      -0.41210000      -1.24570000
O        1.13610000       0.40070000      -2.04980000
C        0.67660000      -0.48690000       1.25540000
C        2.00350000       0.21080000       1.66680000
C        1.51860000       0.17330000       3.14090000
C        0.07320000      -0.06060000       2.62310000
H        0.18180000       1.70990000      -0.81300000
H       -1.00860000      -0.54000000      -0.07640000
H        0.95160000      -1.49580000      -1.36520000
H        0.79820000      -1.57550000       1.20710000
H        2.94230000      -0.29150000       1.42100000
H        2.03050000       1.23230000       1.27960000
H        1.90610000      -0.69920000       3.67460000
H        1.69600000       1.06100000       3.75190000
H       -0.47520000       0.87910000       2.52370000
H       -0.55150000      -0.78720000       3.14820000
