17
Properties=species:S:1:pos:R:3 gdb_55403=T pbc="F F F"
C        0.00860000       1.47250000      -0.10600000
C        0.03980000      -0.02850000      -0.00880000
N        1.16400000      -0.63020000       0.01790000
N       -1.19760000      -0.70410000       0.02490000
C       -1.27440000      -2.15610000       0.07750000
C       -2.78610000      -2.38720000      -0.07400000
O       -3.38780000      -1.12690000       0.23450000
C       -2.46090000      -0.13090000       0.19660000
O       -2.74860000       1.02570000       0.30880000
H        1.03970000       1.81290000      -0.19410000
H       -0.57440000       1.80400000      -0.96860000
H       -0.46270000       1.91700000       0.77270000
H        1.07290000      -1.64250000       0.09340000
H       -0.70550000      -2.61600000      -0.73560000
H       -0.88600000      -2.53840000       1.03000000
H       -3.05650000      -2.66530000      -1.09790000
H       -3.17720000      -3.13800000       0.61430000
