23
Properties=species:S:1:pos:R:3 gdb_85866=T pbc="F F F"
C       -0.54980000       0.84200000      -1.47480000
C        0.32980000      -0.23230000      -0.85230000
C        1.85080000      -0.26150000      -1.19960000
C        2.20030000      -0.51750000       0.30610000
C        2.44180000      -1.99950000       0.61120000
C        3.30160000       0.35480000       0.90120000
C        0.74370000      -0.11310000       0.61860000
C        0.24360000       0.80650000       1.64300000
O       -0.01060000      -0.60490000       1.71420000
H       -0.12450000       1.84000000      -1.32130000
H       -0.65530000       0.68650000      -2.55380000
H       -1.55560000       0.83340000      -1.04040000
H       -0.11690000      -1.21920000      -1.01720000
H        2.17870000      -1.02500000      -1.90900000
H        2.20810000       0.71420000      -1.54290000
H        3.41500000      -2.31850000       0.22200000
H        2.42600000      -2.17960000       1.69050000
H        1.67320000      -2.63560000       0.16110000
H        3.12430000       1.41640000       0.70080000
H        3.37020000       0.22220000       1.98720000
H        4.27750000       0.09200000       0.47680000
H        0.91820000       1.19740000       2.40360000
H       -0.62900000       1.42620000       1.43930000
