16
Properties=species:S:1:pos:R:3 gdb_67750=T pbc="F F F"
O       -0.04460000       1.47860000       0.05980000
C       -0.01860000       0.09040000       0.03360000
C        0.85000000      -0.67690000       1.08030000
C        0.63040000      -1.98570000       0.88580000
C       -0.36150000      -1.93050000      -0.26800000
C       -1.32490000      -2.43380000      -1.35490000
N       -1.43070000      -0.91060000      -1.56340000
C       -1.31800000      -0.72860000      -0.02870000
C        0.07890000      -0.79920000      -1.23610000
H        0.85330000       1.80730000      -0.05550000
H        1.48280000      -0.19540000       1.81430000
H        1.04160000      -2.83820000       1.40720000
H       -0.90220000      -2.96110000      -2.21550000
H       -2.26490000      -2.89490000      -1.03690000
H       -2.20150000      -0.69250000       0.61210000
H        0.84020000      -0.85110000      -2.01860000
