20
Properties=species:S:1:pos:R:3 gdb_17276=T pbc="F F F"
C        0.14330000       1.45080000      -0.17720000
C        0.14630000      -0.03250000       0.09320000
O        1.41390000      -0.66760000       0.30180000
C        0.47460000      -0.65970000       1.38520000
C        0.86660000       0.08450000       2.64220000
C        1.81960000      -0.71730000       3.50870000
C        3.28640000      -0.76160000       3.16560000
C        2.82000000      -0.01750000       4.39330000
H        0.80070000       1.99350000       0.50430000
H        0.48200000       1.64690000      -1.20000000
H       -0.87100000       1.85330000      -0.07930000
H       -0.51590000      -0.60210000      -0.56370000
H        0.02960000      -1.64060000       1.57470000
H        1.33400000       1.03740000       2.37560000
H       -0.04400000       0.32210000       3.21000000
H        1.39590000      -1.63690000       3.90560000
H        3.82170000      -1.69460000       3.30130000
H        3.61270000      -0.18380000       2.30820000
H        2.84390000       1.06740000       4.37160000
H        3.03420000      -0.44370000       5.36730000
