22
Properties=species:S:1:pos:R:3 gdb_95203=T pbc="F F F"
C       -0.03760000       1.57510000       0.02340000
C        0.09050000       0.04730000       0.00730000
C        0.72970000      -0.45130000      -1.28460000
C        2.17920000      -0.30140000      -1.57870000
N        1.60960000      -1.63000000      -1.33360000
C        1.97650000      -2.29280000      -0.06950000
C        1.01580000      -2.01260000       1.09240000
C        0.76880000      -0.51180000       1.26840000
O        1.98400000       0.20560000       1.49350000
H        0.94650000       2.04700000       0.05670000
H       -0.56040000       1.92910000      -0.87110000
H       -0.60440000       1.91120000       0.89870000
H       -0.92440000      -0.37430000       0.03010000
H        0.04590000      -0.40740000      -2.13260000
H        2.51860000      -0.11980000      -2.59620000
H        2.79830000       0.13120000      -0.79770000
H        2.00670000      -3.37240000      -0.25690000
H        2.99030000      -1.99340000       0.21910000
H        0.05100000      -2.50350000       0.91280000
H        1.42060000      -2.44910000       2.01490000
H        0.08720000      -0.34670000       2.11800000
H        2.40960000      -0.16720000       2.27200000
