17
Properties=species:S:1:pos:R:3 gdb_71103=T pbc="F F F"
C        0.25720000       1.60360000      -0.07580000
C       -0.01920000       0.13420000      -0.08360000
C        0.25590000      -0.81260000      -1.28580000
C       -0.67350000      -1.80020000      -0.57740000
C       -0.42170000      -1.56340000       0.88960000
O        0.60310000      -0.59610000       1.03100000
C       -1.37920000      -0.63620000       0.15820000
C       -2.79120000      -0.35420000       0.38830000
O       -3.63820000      -1.21030000       0.52470000
H        1.33290000       1.78080000      -0.18010000
H       -0.25510000       2.09570000      -0.90780000
H       -0.07530000       2.05780000       0.86170000
H       -0.18770000      -0.43820000      -2.21110000
H        1.30070000      -1.09940000      -1.44010000
H       -1.16080000      -2.68740000      -0.95850000
H       -0.62370000      -2.25870000       1.69290000
H       -3.05110000       0.72650000       0.44540000
