19
Properties=species:S:1:pos:R:3 gdb_91605=T pbc="F F F"
C       -0.21340000       1.54320000      -0.03660000
C        0.02630000       0.04270000       0.02070000
O        0.81940000      -0.38930000      -1.10930000
C        1.89570000      -1.18210000      -0.58510000
C        1.27250000      -1.85700000       0.64960000
C        0.81210000      -0.50570000       1.24430000
C        2.14220000       0.25530000       1.28730000
O        2.50420000       1.05580000       2.10800000
C        2.92230000      -0.22580000       0.04600000
H        0.72000000       2.10750000       0.03810000
H       -0.69780000       1.80410000      -0.98160000
H       -0.86900000       1.85480000       0.78300000
H       -0.94280000      -0.47640000      -0.02200000
H        2.27040000      -1.82800000      -1.37890000
H        0.44330000      -2.52190000       0.39700000
H        1.99600000      -2.39060000       1.27150000
H        0.25820000      -0.49590000       2.18110000
H        3.84340000      -0.73410000       0.35350000
H        3.19070000       0.61040000      -0.60400000
