19
Properties=species:S:1:pos:R:3 gdb_126233=T pbc="F F F"
C        0.04440000       1.62510000       0.00430000
C        0.00310000       0.08610000       0.00040000
C       -1.38230000      -0.48730000       0.01680000
C       -2.16780000      -0.78660000       1.09800000
N       -1.98340000      -0.63680000       2.45500000
O       -3.35630000      -1.26510000       0.71430000
N       -3.39480000      -1.29660000      -0.69930000
C       -2.22740000      -0.83390000      -1.08080000
C       -1.92030000      -0.73580000      -2.54140000
H        1.07620000       1.99170000      -0.00620000
H       -0.46900000       2.03290000      -0.87200000
H       -0.45270000       2.02740000       0.89250000
H        0.53920000      -0.28700000      -0.88040000
H        0.56930000      -0.28870000       0.86460000
H       -1.01550000      -0.64330000       2.74370000
H       -2.55340000      -1.25750000       3.01340000
H       -1.71980000       0.29990000      -2.83550000
H       -1.03350000      -1.32570000      -2.79770000
H       -2.76510000      -1.10630000      -3.12510000
