19
Properties=species:S:1:pos:R:3 gdb_41156=T pbc="F F F"
C       -0.00720000       1.49670000      -0.10720000
O        1.44780000       1.52430000       0.04510000
C        1.39470000       0.25960000       0.71710000
C        2.26870000      -0.99800000       0.68310000
C        1.37190000      -1.38130000       1.92170000
C        1.31450000       0.13460000       2.25230000
C       -0.06150000      -1.82150000       1.52150000
O       -0.82480000      -0.73440000       0.96950000
C        0.02630000      -0.02700000       0.10750000
H       -0.50820000       2.05040000       0.69560000
H       -0.32230000       1.87300000      -1.08330000
H        2.22220000      -1.61870000      -0.21650000
H        3.30800000      -0.84910000       0.98880000
H        1.80100000      -2.06950000       2.65060000
H        2.22990000       0.48560000       2.73390000
H        0.43200000       0.52070000       2.76480000
H       -0.02080000      -2.65570000       0.80320000
H       -0.61670000      -2.15550000       2.40260000
H        0.12580000      -0.54220000      -0.86030000
