15
Properties=species:S:1:pos:R:3 gdb_33624=T pbc="F F F"
N        0.05050000      -1.16450000       0.00290000
C        0.00690000      -0.00880000       0.02410000
C       -0.08680000       1.42040000       0.04470000
C       -0.69220000       2.33880000       1.13580000
C       -0.94850000       3.33970000       0.02240000
C        0.39990000       3.28590000       0.74520000
N        1.19330000       2.29300000      -0.04940000
C        0.83680000       2.59850000      -1.48730000
C       -0.63370000       2.34100000      -1.11620000
H       -1.18350000       2.13070000       2.07480000
H       -1.60340000       4.19870000       0.01470000
H        0.85800000       4.10200000       1.28580000
H        1.12930000       3.59300000      -1.83320000
H        1.26230000       1.82640000      -2.13390000
H       -1.41800000       2.04600000      -1.81050000
