20
Properties=species:S:1:pos:R:3 gdb_100708=T pbc="F F F"
C       -0.12090000       1.78110000       0.56730000
C       -0.07690000       0.31740000       0.10450000
C        0.79640000      -0.56580000       1.01620000
O        1.02310000      -1.87840000       0.45180000
C        2.16840000       0.02870000       1.35230000
O        2.92710000      -0.86840000       2.13120000
C       -1.52850000      -0.19940000      -0.08140000
N       -1.68910000      -1.54840000      -0.07510000
O       -2.45770000       0.56840000      -0.25280000
H        0.84560000       2.27310000       0.43580000
H       -0.87650000       2.31450000      -0.00920000
H       -0.40350000       1.85090000       1.62310000
H        0.37580000       0.29200000      -0.90060000
H        0.27070000      -0.76990000       1.95580000
H        1.41740000      -1.75230000      -0.42100000
H        2.68640000       0.29000000       0.40960000
H        2.06110000       0.94910000       1.93140000
H        2.77310000      -1.74280000       1.75180000
H       -0.90960000      -2.16830000       0.08440000
H       -2.62210000      -1.90680000      -0.19490000
