17
Properties=species:S:1:pos:R:3 gdb_128412=T pbc="F F F"
C       -0.25430000       1.48750000      -0.46930000
N       -0.25000000       0.03110000      -0.37680000
C        1.03810000      -0.56620000      -0.71920000
C        0.90790000      -2.05320000      -0.80710000
N        1.86260000      -2.96040000      -0.65150000
C        1.19460000      -4.12650000      -0.87030000
O        1.79930000      -5.32100000      -0.81030000
N       -0.09390000      -4.02070000      -1.13950000
N       -0.25130000      -2.66500000      -1.09460000
H        0.52500000       1.97920000       0.13740000
H       -0.10220000       1.78610000      -1.51210000
H       -1.22820000       1.86870000      -0.15060000
H       -0.50110000      -0.24730000       0.56690000
H        1.33920000      -0.17090000      -1.69920000
H        1.85900000      -0.32340000      -0.02470000
H        2.72480000      -5.14740000      -0.60170000
H       -1.14550000      -2.23150000      -1.25460000
