20
Properties=species:S:1:pos:R:3 gdb_112642=T pbc="F F F"
C       -0.08060000       1.55370000      -0.15140000
C        0.05280000       0.03920000       0.01020000
N        0.75950000      -0.56500000      -1.13540000
C        1.62330000      -1.36470000      -0.66260000
C        2.55470000      -2.23160000      -1.43840000
O        1.72970000      -1.47950000       0.69610000
C        0.84280000      -0.46830000       1.25590000
C        1.72560000       0.53050000       1.99760000
O        2.46390000      -0.10760000       3.02090000
H        0.89550000       2.04140000      -0.21970000
H       -0.62480000       1.76940000      -1.07420000
H       -0.63460000       1.99530000       0.68310000
H       -0.95990000      -0.38450000       0.03160000
H        2.39710000      -2.07720000      -2.50510000
H        3.59350000      -2.00120000      -1.18170000
H        2.38480000      -3.28430000      -1.19080000
H        0.20230000      -0.97720000       1.98160000
H        2.38930000       1.04060000       1.28220000
H        1.10660000       1.29260000       2.48120000
H        2.92050000      -0.84700000       2.60290000
