15
Properties=species:S:1:pos:R:3 gdb_9189=T pbc="F F F"
C        0.09800000       1.38620000       0.11250000
N       -0.07910000      -0.04960000       0.13670000
C       -1.29510000      -0.63410000      -0.00860000
O       -2.35210000      -0.06360000      -0.17020000
O       -1.15990000      -1.98880000       0.05410000
C       -2.39750000      -2.70360000      -0.08950000
C       -2.12390000      -4.12910000      -0.00520000
C       -1.93420000      -5.31280000       0.05960000
H        0.75470000       1.69560000      -0.70850000
H       -0.88500000       1.83510000      -0.03390000
H        0.51890000       1.75420000       1.05500000
H        0.71220000      -0.65790000       0.26300000
H       -3.09590000      -2.39000000       0.69410000
H       -2.86030000      -2.44780000      -1.04900000
H       -1.76490000      -6.35970000       0.11700000
