17
Properties=species:S:1:pos:R:3 gdb_48436=T pbc="F F F"
O       -0.33310000       0.44960000       1.01960000
C       -0.14550000       1.24070000       0.12590000
C        1.16190000       1.93340000      -0.09620000
C        1.43280000       2.49080000      -1.47740000
C        1.81860000       1.36990000      -2.46750000
C        2.11730000       1.88270000      -3.80150000
N        2.34630000       2.30980000      -4.85050000
C        1.71790000       2.59450000       1.13640000
N        2.31370000       1.36890000       0.62660000
H       -0.95370000       1.50540000      -0.58970000
H        0.54940000       3.02600000      -1.84440000
H        2.24800000       3.21680000      -1.42850000
H        2.69470000       0.84000000      -2.07950000
H        1.01140000       0.63240000      -2.55290000
H        2.31130000       3.49570000       1.00910000
H        1.11980000       2.54620000       2.04190000
H        1.96940000       0.58200000       1.17880000
