22
Properties=species:S:1:pos:R:3 gdb_119035=T pbc="F F F"
C        2.46800000       0.41820000      -0.61320000
C        1.49600000      -0.66440000      -0.20860000
N        1.92520000      -1.60850000       0.84090000
C        0.74860000      -0.73660000       1.08220000
C        1.00910000       0.25530000       2.21090000
O        1.39500000      -0.41970000       3.39750000
C       -0.62910000      -1.37690000       1.07130000
C       -0.96100000      -2.17540000       2.33170000
O       -2.24470000      -2.75120000       2.12850000
H        3.06700000       0.76110000       0.23250000
H        3.15950000       0.03520000      -1.37140000
H        1.94220000       1.27790000      -1.04270000
H        0.96260000      -1.10350000      -1.05210000
H        1.62390000      -2.55430000       0.61910000
H        1.76960000       0.99030000       1.91630000
H        0.09410000       0.80860000       2.44710000
H        2.09850000      -1.02140000       3.11880000
H       -1.39680000      -0.60400000       0.93990000
H       -0.71720000      -2.05060000       0.20970000
H       -0.19630000      -2.95270000       2.49280000
H       -0.94130000      -1.52460000       3.21500000
H       -2.50430000      -3.19440000       2.94120000
