19
Properties=species:S:1:pos:R:3 gdb_128144=T pbc="F F F"
C       -0.18350000       1.17320000      -0.08080000
N       -0.22480000      -0.26160000       0.15510000
C        0.71030000      -0.83650000       0.99320000
C        1.22000000      -2.12960000       0.96060000
N        0.86680000      -3.08020000      -0.03350000
C       -0.07760000      -4.11470000       0.40280000
C        2.08960000      -2.18910000       2.07690000
N        2.13910000      -1.04420000       2.74470000
N        1.27720000      -0.23140000       2.06400000
H        0.80010000       1.54020000      -0.41340000
H       -0.92550000       1.42750000      -0.84060000
H       -0.46030000       1.71590000       0.83050000
H       -0.30790000      -0.82220000      -0.68450000
H        1.69430000      -3.51650000      -0.42410000
H        0.27950000      -4.71560000       1.25400000
H       -1.01670000      -3.64000000       0.70180000
H       -0.28810000      -4.78880000      -0.43400000
H        2.69420000      -3.02350000       2.40580000
H        1.13300000       0.70570000       2.39490000
