18
Properties=species:S:1:pos:R:3 gdb_9279=T pbc="F F F"
C       -0.18170000       1.43970000      -0.14570000
C       -0.04160000      -0.07960000      -0.00620000
C        0.76010000      -0.46120000       1.24060000
O        2.06350000       0.07930000       1.10320000
C       -1.39740000      -0.78530000       0.02500000
O       -2.09070000      -0.58500000      -1.21300000
C       -3.31640000      -0.03090000      -1.18380000
O       -3.96550000       0.15700000      -2.16790000
H        0.80400000       1.90850000      -0.13990000
H       -0.68760000       1.70590000      -1.07700000
H       -0.75890000       1.85830000       0.68880000
H        0.51040000      -0.46510000      -0.87260000
H        0.25730000      -0.06540000       2.13960000
H        0.79560000      -1.55850000       1.34020000
H        2.55500000      -0.10520000       1.90850000
H       -1.27320000      -1.86650000       0.15060000
H       -2.01150000      -0.41420000       0.85810000
H       -3.64640000       0.22530000      -0.15740000
