25
Properties=species:S:1:pos:R:3 gdb_104984=T pbc="F F F"
C        0.10250000       1.55410000      -0.32660000
C       -0.06080000       0.05860000      -0.03320000
C       -1.49150000      -0.48400000       0.09860000
C       -2.44210000       0.26920000       1.00210000
C       -2.62570000       0.31630000      -0.49480000
C       -1.57480000      -2.03030000       0.02100000
C       -0.54660000      -2.69380000       0.95710000
C       -2.95880000      -2.60720000       0.34280000
O       -1.33410000      -2.45330000      -1.33060000
H        1.16360000       1.82120000      -0.30840000
H       -0.28520000       1.82200000      -1.31350000
H       -0.40180000       2.18080000       0.41570000
H        0.46040000      -0.48790000      -0.83240000
H        0.48710000      -0.17440000       0.88760000
H       -3.16240000      -0.28730000       1.58920000
H       -2.07460000       1.16070000       1.49960000
H       -2.39340000       1.24310000      -1.00490000
H       -3.46180000      -0.21650000      -0.92990000
H       -0.68220000      -2.36290000       1.99210000
H       -0.66460000      -3.78040000       0.92160000
H        0.48100000      -2.46260000       0.66260000
H       -3.74640000      -2.16030000      -0.26710000
H       -2.94060000      -3.67710000       0.12040000
H       -3.21150000      -2.48270000       1.39800000
H       -0.45370000      -2.15930000      -1.58420000
