18
Properties=species:S:1:pos:R:3 gdb_56435=T pbc="F F F"
C       -0.31520000       1.54400000       0.18340000
C        0.06060000       0.04130000       0.08330000
C        0.86600000      -0.38600000       1.21900000
C        1.54540000      -0.71870000       2.15170000
C       -1.24030000      -0.76910000      -0.04830000
O       -1.82250000      -1.23690000       0.90420000
C       -1.78320000      -0.91830000      -1.43520000
C       -2.18310000      -2.31000000      -1.83190000
N       -3.19520000      -1.29790000      -1.57130000
H        0.59120000       2.15160000       0.22920000
H       -0.90230000       1.85770000      -0.68480000
H       -0.90180000       1.72240000       1.08750000
H        0.63600000      -0.10250000      -0.84100000
H        2.13870000      -1.02390000       2.97790000
H       -1.39910000      -0.24590000      -2.19660000
H       -2.07070000      -2.60680000      -2.87060000
H       -2.02440000      -3.09220000      -1.09490000
H       -3.55140000      -1.43390000      -0.62380000
