20
Properties=species:S:1:pos:R:3 gdb_40652=T pbc="F F F"
C       -0.66790000       1.32320000      -0.26990000
O        0.56070000       1.57720000       0.40470000
C        0.19850000       0.21010000       0.14650000
C       -0.15050000      -0.60320000       1.34750000
C       -0.22970000      -2.09360000       1.36270000
C        0.39520000      -2.91460000       0.24060000
C        1.88090000      -2.47320000       0.18900000
C        2.11190000      -1.68350000       1.50720000
N        0.80960000      -1.39830000       2.13920000
H       -1.57000000       1.54110000       0.30090000
H       -0.70230000       1.61660000      -1.31850000
H        0.80370000      -0.25510000      -0.62690000
H       -0.84390000      -0.07010000       1.99700000
H       -1.02890000      -2.56070000       1.93350000
H        0.31100000      -3.97540000       0.49610000
H       -0.11270000      -2.78010000      -0.71960000
H        2.55150000      -3.33340000       0.11740000
H        2.08190000      -1.85350000      -0.68840000
H        2.68100000      -2.28530000       2.22240000
H        2.66700000      -0.75360000       1.35010000
