21
Properties=species:S:1:pos:R:3 gdb_104046=T pbc="F F F"
C        0.17320000       1.49790000       0.05500000
C        0.01450000      -0.01530000       0.00050000
C       -1.44200000      -0.42790000      -0.18560000
O       -1.87610000       0.01980000      -1.46160000
C        0.95310000      -0.79430000      -0.98830000
C        1.46600000      -1.68440000       0.17630000
C        2.68140000      -1.11110000       0.91930000
O        1.84230000      -0.24060000       1.71760000
C        0.64100000      -0.82490000       1.17450000
H        1.21020000       1.76730000       0.26750000
H       -0.12770000       1.94540000      -0.89620000
H       -0.45190000       1.93150000       0.84480000
H       -1.53290000      -1.52440000      -0.10270000
H       -2.04970000       0.01340000       0.62170000
H       -2.78800000      -0.25810000      -1.58570000
H        0.40960000      -1.32250000      -1.77380000
H        1.72890000      -0.18490000      -1.46040000
H        1.38760000      -2.76570000       0.07500000
H        3.21480000      -1.83150000       1.55340000
H        3.41060000      -0.55310000       0.31830000
H       -0.02360000      -1.20090000       1.96060000
