13
Properties=species:S:1:pos:R:3 gdb_21808=T pbc="F F F"
O       -0.25400000       0.63650000       0.99120000
C        0.01050000       1.22160000      -0.02220000
C        1.42390000       1.69030000      -0.36850000
N        1.42420000       2.84520000      -1.23710000
C        1.17300000       4.14480000      -0.94010000
C        1.24140000       4.78530000      -2.15290000
N        1.51970000       3.86460000      -3.11690000
N        1.62680000       2.69170000      -2.56580000
H       -0.74970000       1.45270000      -0.80000000
H        1.98070000       1.88700000       0.55080000
H        1.92630000       0.88520000      -0.91540000
H        0.98580000       4.48480000       0.06470000
H        1.11490000       5.83020000      -2.38430000
