15
Properties=species:S:1:pos:R:3 gdb_31898=T pbc="F F F"
C        0.10820000       1.39560000       0.10140000
N       -0.15570000      -0.01120000      -0.12900000
C        0.52480000      -0.71970000      -1.07740000
N        0.59870000      -2.04350000      -1.11520000
C        1.31470000      -2.33320000      -2.23880000
C        1.69450000      -1.18710000      -2.90050000
N        1.17350000      -0.14260000      -2.12290000
C        2.43470000      -0.96560000      -4.07280000
N        3.04460000      -0.76650000      -5.04040000
H        1.16230000       1.60950000       0.33270000
H       -0.18300000       1.98990000      -0.77310000
H       -0.50480000       1.73600000       0.93720000
H       -0.38880000      -0.57440000       0.67410000
H        1.53420000      -3.34990000      -2.52620000
H        1.25210000       0.83730000      -2.33450000
