18
Properties=species:S:1:pos:R:3 gdb_87645=T pbc="F F F"
C        0.08500000       1.54870000       0.30390000
C       -0.03090000       0.04590000       0.17900000
C        1.13270000      -0.77410000      -0.37790000
C        0.76370000      -0.84960000       1.06010000
O        1.63240000      -0.32970000       2.10810000
C        1.18200000      -1.29040000       2.98880000
N        1.39980000      -1.47270000       4.20900000
C        0.31000000      -1.99450000       1.95710000
O       -1.07060000      -2.03120000       2.20660000
H        1.09130000       1.84040000       0.61720000
H       -0.13170000       2.03830000      -0.65100000
H       -0.61860000       1.93380000       1.04890000
H       -1.02550000      -0.32670000      -0.05260000
H        0.92790000      -1.63030000      -1.01250000
H        2.04310000      -0.23480000      -0.62010000
H        2.02000000      -0.75980000       4.59700000
H        0.70540000      -2.97600000       1.66020000
H       -1.19730000      -2.44480000       3.06820000
