18
Properties=species:S:1:pos:R:3 gdb_117869=T pbc="F F F"
C       -0.02760000       1.37870000       0.03060000
O        0.00510000      -0.03080000      -0.00840000
C        0.64080000      -0.53440000      -1.15680000
C        0.58000000      -2.07270000      -1.08240000
C       -0.87340000      -2.59050000      -1.08020000
C        1.35440000      -2.65540000      -2.16880000
C        1.98780000      -3.13050000      -3.08230000
C        2.70280000      -3.66920000      -4.11270000
N        3.31140000      -4.12670000      -4.99040000
H        0.98570000       1.80860000       0.03170000
H       -0.57890000       1.79620000      -0.82580000
H       -0.53560000       1.66560000       0.95390000
H        0.13880000      -0.18540000      -2.07470000
H        1.68950000      -0.20110000      -1.20510000
H        1.05460000      -2.36090000      -0.13450000
H       -0.90000000      -3.67490000      -0.95140000
H       -1.41870000      -2.11800000      -0.26160000
H       -1.37070000      -2.34400000      -2.02290000
