18
Properties=species:S:1:pos:R:3 gdb_75000=T pbc="F F F"
C        0.00390000       1.49010000       0.05650000
C       -0.06440000      -0.00820000       0.04610000
N       -1.15500000      -0.63000000       0.24150000
C       -1.19320000      -2.06750000       0.10130000
C       -1.50800000      -2.52650000      -1.34580000
O       -0.14190000      -2.95160000      -1.54720000
C        0.15740000      -2.77890000      -0.14780000
C        1.36600000      -1.91610000       0.12200000
O        1.16330000      -0.53960000      -0.20870000
H        0.67380000       1.83560000       0.85060000
H        0.41510000       1.85180000      -0.89140000
H       -0.99300000       1.90200000       0.20750000
H       -1.83190000      -2.49150000       0.87850000
H       -2.21010000      -3.36700000      -1.41790000
H       -1.80450000      -1.72980000      -2.03450000
H        0.27460000      -3.74670000       0.35990000
H        1.62210000      -1.98820000       1.18840000
H        2.22520000      -2.24530000      -0.46830000
