18
Properties=species:S:1:pos:R:3 gdb_9872=T pbc="F F F"
C        0.05030000       1.62020000       0.28850000
C       -0.03230000       0.12590000       0.04740000
C        1.21010000      -0.60370000      -0.43790000
C        0.70590000      -0.79080000       0.97830000
N       -1.34160000      -0.31310000      -0.39620000
C       -1.59870000      -0.06400000      -1.81320000
C       -2.90340000      -0.59870000      -2.20930000
N       -3.92120000      -1.04230000      -2.52780000
H        1.03840000       1.89810000       0.66570000
H       -0.11720000       2.19200000      -0.63140000
H       -0.70290000       1.92980000       1.01920000
H        1.07820000      -1.43240000      -1.12650000
H        2.12380000      -0.03960000      -0.59160000
H        1.26700000      -0.34480000       1.79210000
H        0.24950000      -1.74280000       1.23200000
H       -1.47680000      -1.29720000      -0.19550000
H       -1.60520000       1.01690000      -1.99410000
H       -0.83480000      -0.48880000      -2.48840000
