13
Properties=species:S:1:pos:R:3 gdb_48105=T pbc="F F F"
O       -0.17630000       0.99890000       1.21050000
C        0.54170000       0.70790000       0.28980000
C        1.27650000       1.74660000      -0.56510000
O        1.98480000       1.37220000      -1.46670000
C        1.03480000       3.18240000      -0.21220000
N        2.10400000       4.12320000      -0.56470000
C        0.84730000       4.21370000      -1.30070000
C        0.86400000       3.86890000      -2.70340000
N        0.81440000       3.63770000      -3.83420000
H        0.74660000      -0.33430000      -0.02860000
H        0.45710000       3.34050000       0.69280000
H        2.15770000       4.86900000       0.12480000
H        0.15480000       5.01800000      -1.06410000
