19
Properties=species:S:1:pos:R:3 gdb_39954=T pbc="F F F"
C       -0.12550000       1.51160000       0.02400000
N        1.20120000       0.87620000      -0.04470000
C       -0.01470000       0.03130000       0.00970000
C       -0.22260000      -0.86350000       1.23790000
C       -0.47230000      -2.26110000       0.65110000
C        0.14900000      -3.49390000       1.21320000
N       -1.30020000      -3.26710000       1.34260000
C       -0.67460000      -2.05300000      -0.80930000
C       -0.42150000      -0.79090000      -1.16160000
H       -0.33540000       2.02500000       0.95950000
H       -0.52180000       2.00720000      -0.85950000
H        1.55560000       0.91070000      -0.99870000
H        0.64000000      -0.81870000       1.90620000
H       -1.10680000      -0.53530000       1.79750000
H        0.42700000      -4.31670000       0.55920000
H        0.78190000      -3.38020000       2.09010000
H       -1.51610000      -2.94060000       2.28210000
H       -0.97850000      -2.85880000      -1.46610000
H       -0.47080000      -0.38410000      -2.16610000
