17
Properties=species:S:1:pos:R:3 gdb_62783=T pbc="F F F"
C       -0.05980000       1.56730000      -0.13640000
C        0.02390000       0.06980000       0.02390000
O       -1.13810000      -0.62770000      -0.35920000
C        1.27440000      -0.74010000      -0.18750000
N        2.44870000       0.03770000       0.27230000
C        1.94420000      -0.06390000       1.68330000
C        1.93190000       1.18960000       2.44620000
N        1.92310000       2.16190000       3.07070000
C        0.62370000      -0.67420000       1.19680000
H        0.88660000       2.05290000       0.10340000
H       -0.30300000       1.81270000      -1.17800000
H       -0.84580000       1.97910000       0.50270000
H       -1.28260000      -0.45900000      -1.29710000
H        1.35000000      -1.55460000      -0.89750000
H        3.31610000      -0.47720000       0.16880000
H        2.50050000      -0.80570000       2.26650000
H        0.03640000      -1.39540000       1.74840000
