19
Properties=species:S:1:pos:R:3 gdb_43173=T pbc="F F F"
O        0.02640000       0.05450000      -0.08290000
C       -0.00590000       1.25310000      -0.01110000
C       -1.20420000       2.19670000       0.03400000
C       -1.25280000       2.79160000       1.45970000
C        0.04360000       3.56080000       1.75050000
N        1.21240000       2.75120000       1.37620000
C        1.16070000       2.25170000      -0.01130000
C        0.65680000       3.26320000      -1.06530000
N       -0.83710000       3.24300000      -0.95070000
H       -2.14360000       1.70950000      -0.23170000
H       -2.10840000       3.46860000       1.54660000
H       -1.38400000       1.97640000       2.18020000
H       -0.00100000       4.52150000       1.21380000
H        0.11710000       3.78950000       2.81840000
H        2.06450000       3.28300000       1.51780000
H        2.11360000       1.78750000      -0.26420000
H        1.04330000       4.27350000      -0.88600000
H        0.98450000       2.95510000      -2.06510000
H       -1.24450000       3.01420000      -1.84860000
