21
Properties=species:S:1:pos:R:3 gdb_95000=T pbc="F F F"
C       -0.22640000       1.57170000       0.02240000
C       -0.00710000       0.05270000      -0.05510000
C        0.75640000      -0.38030000      -1.32300000
C        2.27760000      -0.25130000      -1.14300000
C        2.69420000      -0.72470000       0.24750000
C        1.74050000      -1.64100000       1.07580000
O        2.39600000      -1.16590000       2.31050000
C        2.17120000       0.04210000       1.48980000
C        0.73090000      -0.45830000       1.18570000
H        0.72330000       2.11720000      -0.01280000
H       -0.84190000       1.92170000      -0.81260000
H       -0.73170000       1.85280000       0.95260000
H       -0.99620000      -0.42280000      -0.07640000
H        0.52440000      -1.43380000      -1.52160000
H        0.41320000       0.18380000      -2.19690000
H        2.79440000      -0.83620000      -1.91180000
H        2.60620000       0.78700000      -1.28150000
H        3.74560000      -1.00690000       0.33650000
H        1.55290000      -2.71290000       0.99260000
H        2.50330000       0.99700000       1.90120000
H        0.10790000      -0.50770000       2.08230000
