17
Properties=species:S:1:pos:R:3 gdb_9303=T pbc="F F F"
C       -0.24550000       1.39480000       0.28200000
C       -0.27240000      -0.11470000       0.03160000
C        0.74430000      -0.55200000      -1.03780000
N        0.77870000      -1.99780000      -1.18630000
C        0.01970000      -2.55310000      -2.04510000
N       -0.85100000      -1.97480000      -2.95310000
C        0.08470000      -4.00150000      -2.15960000
N        0.10330000      -5.15170000      -2.27120000
H        0.74290000       1.72070000       0.62320000
H       -0.48220000       1.95710000      -0.62830000
H       -0.97270000       1.68040000       1.04760000
H       -0.05260000      -0.65910000       0.95610000
H       -1.28020000      -0.42680000      -0.27260000
H        0.53840000      -0.02770000      -1.98600000
H        1.74390000      -0.23420000      -0.72130000
H       -1.19220000      -1.05040000      -2.74680000
H       -1.51870000      -2.58110000      -3.40180000
