22
Properties=species:S:1:pos:R:3 gdb_74284=T pbc="F F F"
C        0.02640000       1.47620000      -0.02880000
C       -0.06170000      -0.02140000       0.03060000
N       -1.17550000      -0.62770000       0.01970000
C       -1.23090000      -2.09660000       0.01520000
C       -1.67520000      -2.56370000       1.41340000
C       -2.29960000      -2.49680000      -1.01400000
C        0.13120000      -2.70670000      -0.37690000
C        1.25630000      -1.97240000       0.33470000
O        1.18870000      -0.56440000       0.08610000
H        0.62970000       1.78470000      -0.88870000
H       -0.97440000       1.89820000      -0.11030000
H        0.52090000       1.86490000       0.86730000
H       -2.59470000      -2.04770000       1.70260000
H       -1.86350000      -3.64280000       1.41940000
H       -0.92030000      -2.34200000       2.17400000
H       -2.03100000      -2.12960000      -2.00920000
H       -2.40700000      -3.58580000      -1.06410000
H       -3.26530000      -2.06070000      -0.74400000
H        0.17280000      -3.77450000      -0.13580000
H        0.27550000      -2.61000000      -1.45940000
H        1.21510000      -2.13700000       1.41930000
H        2.24130000      -2.29000000      -0.01670000
