16
Properties=species:S:1:pos:R:3 gdb_130343=T pbc="F F F"
N       -0.10870000       1.18400000      -0.27950000
H       -0.23160000       0.21970000      -0.57320000
H        2.10490000       0.42390000       2.84990000
H       -0.48880000       1.78210000      -1.00630000
C       -0.75860000       1.42290000       0.98680000
C       -2.27000000       0.93940000       1.25810000
N       -1.68080000       0.07890000       2.28790000
N       -1.93040000      -0.66900000       3.35740000
C       -0.69830000      -0.80950000       3.88800000
C        0.30470000      -0.10420000       3.16960000
O        1.62100000      -0.07580000       3.51370000
C       -0.39870000       0.47010000       2.12230000
H       -0.63740000       2.48060000       1.24230000
H       -2.94840000       1.70290000       1.65020000
H       -2.74230000       0.39710000       0.43340000
H       -0.55220000      -1.41720000       4.76860000
