17
Properties=species:S:1:pos:R:3 gdb_84053=T pbc="F F F"
C       -0.13390000       1.58870000       0.00960000
C        0.05960000       0.07180000       0.02360000
N        0.84070000      -0.38800000      -1.14040000
C        1.76640000      -1.15830000      -0.70960000
C        2.72910000      -1.79350000      -1.54520000
C        3.55990000      -2.33650000      -2.22360000
N        1.84000000      -1.42150000       0.70510000
C        2.23300000      -0.17970000       1.42680000
C        0.80030000      -0.50930000       1.23380000
H        0.82560000       2.10920000       0.07850000
H       -0.62250000       1.89740000      -0.91790000
H       -0.75730000       1.90310000       0.85240000
H       -0.93120000      -0.39890000      -0.04230000
H        4.28680000      -2.81360000      -2.83400000
H        2.70050000      -0.35070000       2.39110000
H        2.67320000       0.61680000       0.83360000
H        0.22550000      -0.88540000       2.07360000
