20
Properties=species:S:1:pos:R:3 gdb_64711=T pbc="F F F"
C       -0.04400000       1.63970000       0.14610000
C        0.03500000       0.11780000       0.06170000
C       -1.36470000      -0.49590000      -0.16340000
C       -1.97610000      -0.08860000      -1.42770000
N       -2.44010000       0.23940000      -2.43430000
C        1.08830000      -0.50790000      -0.92680000
C        1.70350000      -1.28890000       0.24080000
C        2.19740000      -0.33290000       1.28680000
C        0.72640000      -0.63290000       1.21970000
H        0.94180000       2.07970000       0.31740000
H       -0.44290000       2.06550000      -0.78060000
H       -0.69700000       1.95380000       0.96880000
H       -1.29660000      -1.58970000      -0.14860000
H       -2.03480000      -0.20850000       0.65630000
H        0.62620000      -1.13240000      -1.69450000
H        1.75700000       0.20360000      -1.42120000
H        2.03650000      -2.31850000       0.20130000
H        2.71210000      -0.78430000       2.12900000
H        2.58890000       0.64040000       1.00190000
H        0.20000000      -1.07080000       2.06140000
