20
Properties=species:S:1:pos:R:3 gdb_61207=T pbc="F F F"
C       -0.07550000       1.59870000       0.02040000
C       -0.01270000       0.06730000      -0.04620000
C       -1.43830000      -0.54430000       0.04610000
C       -1.43480000      -1.99950000       0.06850000
C       -1.39690000      -3.20050000       0.08710000
N        0.72210000      -0.40900000      -1.21030000
C        0.27000000      -0.08060000      -2.55280000
C        1.79410000      -1.24590000      -1.06240000
O        2.44990000      -1.72160000      -1.96450000
H        0.92820000       2.02640000      -0.04840000
H       -0.68230000       2.01610000      -0.78910000
H       -0.52180000       1.91830000       0.96680000
H        0.54670000      -0.29160000       0.82440000
H       -1.91540000      -0.15740000       0.95490000
H       -2.04850000      -0.18210000      -0.79080000
H       -1.37300000      -4.26210000       0.09950000
H        0.26860000       1.00110000      -2.72180000
H        0.96530000      -0.55050000      -3.24830000
H       -0.73700000      -0.46830000      -2.74350000
H        2.01490000      -1.44090000       0.00450000
