16
Properties=species:S:1:pos:R:3 gdb_93309=T pbc="F F F"
O        0.09610000       1.47060000      -0.02070000
C        0.02590000       0.05450000       0.00130000
C        0.58990000      -0.56390000       1.29780000
O       -0.53570000      -0.84440000       2.14960000
C       -1.68930000      -0.91510000       1.42510000
O       -2.73870000      -1.22960000       1.90240000
C       -1.39270000      -0.49060000       0.00900000
C       -2.47550000       0.01380000      -0.87300000
N       -1.96130000      -1.34430000      -1.05790000
H       -0.47130000       1.81650000       0.67800000
H        0.59900000      -0.27080000      -0.87120000
H        1.12580000      -1.49980000       1.10450000
H        1.25130000       0.13190000       1.81730000
H       -3.48160000       0.06110000      -0.46770000
H       -2.20560000       0.78930000      -1.58430000
H       -1.31040000      -1.36160000      -1.84130000
