18
Properties=species:S:1:pos:R:3 gdb_80803=T pbc="F F F"
C       -0.17690000       1.55150000       0.82060000
C       -0.13570000       0.07350000       0.48830000
C        1.05180000      -0.49210000      -0.34220000
O        1.95010000      -0.24240000       0.81840000
C        0.73630000      -0.87280000       1.37790000
C        0.65630000      -1.09930000       2.80050000
N        0.54490000      -1.29900000       3.93360000
C        0.80870000      -1.92290000       0.22060000
C       -0.34850000      -2.81970000      -0.17800000
H        0.81810000       1.91960000       1.07590000
H       -0.55550000       2.12280000      -0.03340000
H       -0.84800000       1.73820000       1.66510000
H       -1.12120000      -0.31950000       0.23120000
H        1.41670000      -0.18720000      -1.32210000
H        1.74920000      -2.47490000       0.28360000
H       -1.30230000      -2.29530000      -0.26650000
H       -0.13650000      -3.29150000      -1.14310000
H       -0.47360000      -3.62100000       0.55740000
