17
Properties=species:S:1:pos:R:3 gdb_22983=T pbc="F F F"
C       -0.24020000       1.46510000      -0.00590000
C       -0.00620000      -0.01410000       0.12640000
N        0.14980000      -0.66430000       1.21570000
O        0.09890000       0.15890000       2.35000000
C        0.02840000      -0.80170000      -1.15080000
C        0.00260000      -2.35480000      -1.10520000
N       -1.25500000      -2.28910000      -1.86300000
C       -1.34550000      -0.92520000      -1.89200000
O       -2.16770000      -0.15480000      -2.31110000
H        0.67190000       1.96250000      -0.35870000
H       -1.02060000       1.64400000      -0.75190000
H       -0.52530000       1.90590000       0.94810000
H        0.20360000      -0.47830000       3.06410000
H        0.79150000      -0.39550000      -1.82380000
H        0.81840000      -2.85100000      -1.63840000
H       -0.09930000      -2.76200000      -0.09850000
H       -1.91480000      -3.00080000      -2.13940000
