19
Properties=species:S:1:pos:R:3 gdb_63146=T pbc="F F F"
C       -0.07750000       1.56890000       0.05040000
C        0.02630000       0.05430000      -0.00460000
O       -1.27190000      -0.46170000      -0.21590000
C        1.06490000      -0.56440000      -0.97140000
C        2.38730000      -0.09390000      -0.36940000
O        2.11370000      -0.08140000       1.05190000
C        0.78550000      -0.59730000       1.19030000
C        0.80300000      -2.06590000       0.75390000
O        0.91310000      -1.97010000      -0.69510000
H        0.84290000       2.02370000       0.41950000
H       -0.31160000       1.97610000      -0.93800000
H       -0.89420000       1.84460000       0.72370000
H       -1.16400000      -1.32540000      -0.63400000
H        0.92780000      -0.39960000      -2.04000000
H        3.19950000      -0.79440000      -0.59310000
H        2.67860000       0.91020000      -0.69950000
H        0.42170000      -0.39560000       2.19690000
H        1.66950000      -2.59470000       1.16210000
H       -0.11260000      -2.60810000       1.01280000
