20
Properties=species:S:1:pos:R:3 gdb_97156=T pbc="F F F"
C        0.15200000       1.39810000       0.04350000
N        0.04150000      -0.04150000      -0.14360000
C       -1.06770000      -0.59700000       0.09950000
C       -1.25770000      -2.08340000      -0.09840000
C       -2.16870000      -2.71400000       0.94000000
C       -2.21450000      -2.17450000       2.35130000
C       -3.32660000      -1.86350000       1.38070000
C       -3.40840000      -0.49740000       0.73650000
O       -2.13110000       0.12620000       0.57160000
H        1.10260000       1.73900000      -0.37450000
H       -0.66480000       1.95210000      -0.43680000
H        0.13550000       1.66490000       1.10870000
H       -1.69300000      -2.25110000      -1.09440000
H       -0.26230000      -2.53240000      -0.11160000
H       -2.33470000      -3.77910000       0.81330000
H       -2.42880000      -2.87380000       3.15140000
H       -1.53090000      -1.37850000       2.62570000
H       -4.29330000      -2.33140000       1.54130000
H       -3.90640000      -0.57260000      -0.24150000
H       -3.98400000       0.20420000       1.34800000
