12
Properties=species:S:1:pos:R:3 gdb_130249=T pbc="F F F"
N        0.13830000       1.40440000       0.02250000
C       -0.03350000       0.04680000      -0.00270000
N       -1.19790000      -0.46550000      -0.15350000
O       -1.23970000      -1.87080000      -0.36110000
C       -0.16430000      -2.67280000      -0.16480000
O       -0.27180000      -3.85630000      -0.27990000
C        1.14040000      -1.99100000       0.17320000
N        2.17110000      -2.64900000       0.45390000
O        1.14960000      -0.60770000       0.11120000
H        0.85630000       1.73650000       0.64990000
H       -0.72770000       1.92180000       0.06200000
H        2.96410000      -2.03160000       0.64040000
