18
Properties=species:S:1:pos:R:3 gdb_92713=T pbc="F F F"
C        0.00030000       1.48330000       0.04690000
C        0.04070000      -0.00900000      -0.01690000
C        0.01360000      -0.79520000      -1.09560000
C        0.01220000      -2.26350000      -0.75410000
C        0.48180000      -2.28320000       0.72060000
O        1.87100000      -2.49480000       0.83630000
C        0.04780000      -0.87200000       1.24930000
C        0.90200000      -0.35950000       2.31900000
N        1.56590000       0.08520000       3.15400000
H        0.85430000       1.88000000       0.60770000
H        0.00560000       1.92220000      -0.95380000
H       -0.90080000       1.83180000       0.56770000
H       -0.04590000      -0.42650000      -2.11400000
H       -0.99350000      -2.69360000      -0.86020000
H        0.68340000      -2.87100000      -1.37000000
H        0.02050000      -3.08220000       1.30440000
H        2.32500000      -1.81080000       0.32950000
H       -0.97470000      -0.93070000       1.65140000
