19
Properties=species:S:1:pos:R:3 gdb_39026=T pbc="F F F"
C        0.03420000       1.62690000       0.19730000
C        1.25300000       0.74110000      -0.03890000
C        2.00900000       0.24370000       1.20130000
C        1.01080000      -0.64680000       1.93020000
C       -0.14550000      -0.70290000       1.27120000
C       -1.36920000      -1.55750000       1.18190000
C       -1.47370000      -1.66650000      -0.36490000
O       -0.98810000      -0.42640000      -0.90520000
C       -0.14350000       0.15040000       0.05370000
H       -0.11990000       2.09520000       1.16640000
H       -0.26850000       2.22750000      -0.65520000
H        1.78200000       0.86180000      -0.97640000
H        2.90050000      -0.33560000       0.92600000
H        2.36650000       1.07750000       1.82080000
H        1.26280000      -1.18450000       2.83690000
H       -1.28450000      -2.53140000       1.66820000
H       -2.25280000      -1.04410000       1.58070000
H       -0.85430000      -2.50060000      -0.72450000
H       -2.49570000      -1.80900000      -0.72560000
