17
Properties=species:S:1:pos:R:3 gdb_47448=T pbc="F F F"
O       -0.41740000       0.16040000       0.66130000
C       -0.23440000       1.27810000       0.27580000
O       -1.24130000       2.07850000      -0.16120000
C       -0.73490000       3.35650000      -0.58890000
C        0.64080000       3.49900000       0.07620000
C        1.09590000       2.03790000       0.18320000
C        2.02220000       1.70860000       1.32580000
C        2.95850000       0.58520000       1.26130000
O        3.41420000       1.93340000       1.10060000
H       -0.66520000       3.35470000      -1.68300000
H       -1.45640000       4.11720000      -0.28510000
H        1.32320000       4.13010000      -0.49500000
H        0.53410000       3.93220000       1.07660000
H        1.57790000       1.72050000      -0.75070000
H        1.66990000       2.02640000       2.30870000
H        3.26950000       0.09110000       2.17960000
H        2.99370000      -0.03190000       0.36550000
