18
Properties=species:S:1:pos:R:3 gdb_62144=T pbc="F F F"
N       -0.10300000       1.46880000      -0.04410000
C        0.00530000       0.01750000      -0.03380000
C        0.67890000      -0.57800000      -1.27780000
O       -0.07000000      -0.12880000      -2.40350000
C        0.38450000      -0.49280000      -3.62120000
N       -0.22960000      -0.11750000      -4.65590000
C        0.76130000      -0.44270000       1.22850000
C        0.07120000      -0.08960000       2.46660000
N       -0.46820000       0.15850000       3.45720000
H        0.81770000       1.89390000      -0.12770000
H       -0.63070000       1.75870000      -0.86170000
H       -1.01410000      -0.38310000       0.00760000
H        1.72060000      -0.22950000      -1.34960000
H        0.68270000      -1.67650000      -1.23840000
H        1.29100000      -1.11260000      -3.58410000
H        0.23510000      -0.47400000      -5.48820000
H        0.90450000      -1.52920000       1.21130000
H        1.76230000       0.00730000       1.24610000
