17
Properties=species:S:1:pos:R:3 gdb_74371=T pbc="F F F"
N        0.04870000       1.35680000       0.07740000
C       -0.05580000      -0.01620000       0.05710000
N       -1.19100000      -0.59490000       0.01720000
C       -1.22670000      -2.05690000       0.04450000
C        0.10550000      -2.67570000      -0.43220000
C        1.23950000      -1.98560000       0.30730000
O        1.18610000      -0.56560000       0.10800000
C       -1.58640000      -2.55040000       1.38070000
C       -1.85820000      -2.96860000       2.47470000
H        0.92210000       1.72640000      -0.26450000
H       -0.77910000       1.82960000      -0.24960000
H       -2.02110000      -2.36970000      -0.64530000
H        0.13160000      -3.75270000      -0.24600000
H        0.20990000      -2.50890000      -1.50960000
H        1.17640000      -2.19220000       1.38260000
H        2.22320000      -2.29490000      -0.05270000
H       -2.11560000      -3.32450000       3.44150000
