17
Properties=species:S:1:pos:R:3 gdb_20154=T pbc="F F F"
C       -0.03090000       1.59740000       0.00720000
C        1.49630000       1.75780000       0.02490000
C        1.88750000       0.90480000       1.24160000
C        2.38910000      -0.19290000       0.38840000
C        2.04130000       0.56510000      -0.90210000
C        0.77790000      -0.17300000      -1.36880000
C        0.02620000       0.05760000      -0.04280000
N        1.04970000      -0.30430000       1.02450000
H       -0.49650000       1.98620000       0.91800000
H       -0.53140000       2.02880000      -0.86490000
H        1.93360000       2.74570000      -0.10220000
H        2.13180000       1.21360000       2.25210000
H        3.12870000      -0.96820000       0.55640000
H        2.82600000       0.79250000      -1.62030000
H        0.26850000       0.27800000      -2.22560000
H        0.97240000      -1.22880000      -1.58080000
H       -0.90160000      -0.48990000       0.11630000
