20
Properties=species:S:1:pos:R:3 gdb_93875=T pbc="F F F"
C        0.26270000       1.64570000      -0.08920000
C        0.15240000       0.12250000      -0.01550000
C        0.98940000      -0.60090000      -1.10170000
O        1.59580000      -1.72630000      -0.48490000
C        1.92990000      -1.36480000       0.84760000
C        3.26300000      -0.62310000       0.94130000
C        0.67990000      -0.54580000       1.30620000
C        0.92620000       0.37330000       2.40840000
N        1.12090000       1.09780000       3.28840000
H        1.29630000       1.98170000       0.04140000
H       -0.08380000       1.99980000      -1.06570000
H       -0.34370000       2.13170000       0.67950000
H       -0.89960000      -0.15450000      -0.12420000
H        0.38340000      -0.96970000      -1.93310000
H        1.74830000       0.08230000      -1.51240000
H        1.99740000      -2.29940000       1.41210000
H        3.24270000       0.33250000       0.40900000
H        3.51870000      -0.41810000       1.98440000
H        4.04970000      -1.24260000       0.50290000
H       -0.07000000      -1.26400000       1.65040000
