19
Properties=species:S:1:pos:R:3 gdb_128483=T pbc="F F F"
C       -1.37810000       0.26100000      -0.07490000
O        0.04840000       0.17130000      -0.09980000
C        0.55720000      -0.66390000      -1.03780000
C        0.55230000      -2.04490000      -1.14110000
C       -0.08380000      -3.03300000      -0.21300000
C        1.31310000      -2.27660000      -2.30740000
N        1.75540000      -1.15470000      -2.87000000
N        1.27620000      -0.16790000      -2.08250000
C        1.57960000       1.21610000      -2.36850000
H       -1.76620000       0.62670000      -1.03310000
H       -1.83440000      -0.70900000       0.14970000
H       -1.62800000       0.97070000       0.71590000
H       -1.10720000      -3.29520000      -0.51070000
H        0.48910000      -3.96480000      -0.18280000
H       -0.12950000      -2.64120000       0.80820000
H        1.56670000      -3.22980000      -2.75080000
H        1.13210000       1.51880000      -3.31970000
H        1.17720000       1.82850000      -1.56120000
H        2.66180000       1.35650000      -2.42870000
