16
Properties=species:S:1:pos:R:3 gdb_20142=T pbc="F F F"
C        0.14470000       1.50290000      -0.03950000
O        1.22780000       0.57350000      -0.07430000
C       -0.10810000       0.05680000      -0.01300000
C       -0.48510000      -0.66480000       1.24860000
C       -2.01160000      -0.97220000       1.50450000
C       -1.66060000      -2.46550000       1.51380000
O       -1.06040000      -2.76130000       0.24670000
C       -0.23680000      -2.18820000       1.26940000
H        0.05490000       2.08170000       0.87960000
H       -0.02140000       2.06560000      -0.95720000
H       -0.44330000      -0.42420000      -0.93170000
H       -0.02890000      -0.16970000       2.11020000
H       -2.35160000      -0.59180000       2.47010000
H       -2.71380000      -0.66920000       0.72380000
H       -2.14590000      -3.28320000       2.03290000
H        0.65900000      -2.73040000       1.54760000
