16
Properties=species:S:1:pos:R:3 gdb_20371=T pbc="F F F"
C       -0.21410000       1.31020000      -0.28950000
C        1.20560000       1.08330000       0.18230000
C        0.23450000      -0.06390000       0.12620000
N       -0.26200000      -0.67710000       1.32500000
C       -0.56840000      -0.11210000       2.52020000
C       -1.00550000      -1.12960000       3.34450000
C       -0.92510000      -2.28530000       2.54500000
N       -0.47500000      -2.00990000       1.32240000
H       -0.88840000       1.83840000       0.37550000
H       -0.39540000       1.48730000      -1.34360000
H        2.01010000       1.10270000      -0.54420000
H        1.47810000       1.46010000       1.16190000
H        0.36540000      -0.82290000      -0.63300000
H       -0.45690000       0.94590000       2.69560000
H       -1.33150000      -1.04220000       4.36810000
H       -1.17420000      -3.30400000       2.80320000
