20
Properties=species:S:1:pos:R:3 gdb_126507=T pbc="F F F"
C        0.00140000       1.65020000       0.21660000
C        0.05380000       0.12390000       0.12530000
C       -1.33230000      -0.50760000      -0.10270000
C       -1.29860000      -2.00270000      -0.14270000
C       -1.42150000      -2.87030000      -1.20960000
C       -1.64730000      -2.66800000      -2.67000000
N       -1.28540000      -4.09360000      -0.63310000
N       -1.09200000      -4.00670000       0.69690000
N       -1.09910000      -2.74140000       0.99250000
H        0.99690000       2.07260000       0.38420000
H       -0.39660000       2.09230000      -0.70410000
H       -0.64130000       1.97500000       1.04240000
H        0.72470000      -0.17970000      -0.68830000
H        0.47750000      -0.29500000       1.04470000
H       -2.00390000      -0.19170000       0.70480000
H       -1.76350000      -0.12140000      -1.03440000
H       -0.79310000      -3.00760000      -3.26700000
H       -2.53380000      -3.20640000      -3.02380000
H       -1.79720000      -1.60750000      -2.88290000
H       -1.32090000      -5.00290000      -1.06590000
