17
Properties=species:S:1:pos:R:3 gdb_26729=T pbc="F F F"
C       -0.00320000       1.51710000       0.06820000
C        0.01360000       0.02830000      -0.03610000
C        0.03180000      -0.78460000      -1.14040000
N        0.10080000      -0.40440000      -2.48700000
C        0.05670000      -2.15390000      -0.68730000
C        0.05120000      -2.14280000       0.67100000
N        0.02890000      -0.81950000       1.09190000
C        0.02180000      -0.43540000       2.42150000
O        0.02640000      -1.20570000       3.35100000
H        0.89070000       1.92160000       0.56010000
H       -0.03260000       1.95600000      -0.93300000
H       -0.87710000       1.89890000       0.61110000
H       -0.24790000       0.52840000      -2.66370000
H       -0.36840000      -1.05750000      -3.10060000
H        0.08190000      -3.02970000      -1.31860000
H        0.06120000      -2.92940000       1.40540000
H        0.01140000       0.66070000       2.54100000
