14
Properties=species:S:1:pos:R:3 gdb_66535=T pbc="F F F"
O       -0.15980000       1.39980000       0.02220000
C       -0.00260000       0.04940000       0.01320000
C       -1.10890000      -0.99590000       0.00740000
C       -0.04510000      -0.98770000      -1.08020000
N        0.84220000      -1.95180000      -0.29530000
C       -0.18670000      -1.95310000       0.79350000
C        0.91170000      -0.93280000       0.83910000
C        2.02150000      -0.74830000       1.69290000
C        2.95290000      -0.54470000       2.42830000
H        0.59910000       1.80470000      -0.41550000
H       -2.17800000      -0.85160000      -0.03900000
H       -0.09880000      -0.93750000      -2.15990000
H       -0.36310000      -2.81040000       1.43300000
H        3.77710000      -0.37720000       3.07640000
