14
Properties=species:S:1:pos:R:3 gdb_131584=T pbc="F F F"
O        0.05830000       1.34500000       0.00870000
C       -0.02090000      -0.05350000       0.00190000
C       -1.48550000      -0.46690000       0.01180000
O       -2.40540000       0.31550000       0.02300000
C       -1.74960000      -1.92720000       0.00600000
C       -2.91930000      -2.62750000       0.01160000
C       -2.49150000      -3.97750000       0.00110000
N       -1.18210000      -4.08350000      -0.01060000
O       -0.70600000      -2.78310000      -0.00720000
H        0.98820000       1.58960000      -0.00080000
H        0.44830000      -0.51130000      -0.88570000
H        0.46280000      -0.52060000       0.87670000
H       -3.91780000      -2.22590000       0.02190000
H       -3.08780000      -4.87870000       0.00110000
