21
Properties=species:S:1:pos:R:3 gdb_121029=T pbc="F F F"
C        0.42980000       1.40360000       0.16230000
C        0.04510000      -0.06030000      -0.06430000
C        0.73280000      -0.67950000      -1.28470000
C        0.37140000      -2.15270000      -1.49880000
C        1.12830000      -2.80380000      -2.66410000
C        2.33660000      -3.44520000      -1.98170000
O        3.33690000      -3.86230000      -2.50030000
C        2.02570000      -3.44530000      -0.48280000
O        0.70810000      -2.95620000      -0.34640000
H        1.50820000       1.51030000       0.32500000
H        0.16450000       2.02420000      -0.70110000
H       -0.08010000       1.81720000       1.03780000
H        0.29380000      -0.65760000       0.81930000
H       -1.04330000      -0.13970000      -0.18830000
H        0.45810000      -0.12480000      -2.19230000
H        1.82390000      -0.58120000      -1.18790000
H       -0.71370000      -2.24590000      -1.60880000
H        0.53920000      -3.60360000      -3.12740000
H        1.44130000      -2.11620000      -3.45230000
H        2.08750000      -4.45620000      -0.06620000
H        2.76880000      -2.82080000       0.03840000
