19
Properties=species:S:1:pos:R:3 gdb_50520=T pbc="F F F"
O        0.14060000      -0.13690000      -0.08920000
C        0.08730000       1.06120000       0.02140000
C        1.26990000       1.98540000      -0.07090000
C        0.98110000       3.32110000      -0.79330000
O        1.09010000       4.07070000       0.42850000
C        1.49570000       2.91100000       1.16980000
C        0.84780000       2.62760000       2.54460000
C        2.23760000       2.15730000       3.05330000
C        2.88300000       2.90320000       1.85320000
H       -0.88320000       1.57850000       0.20660000
H        2.14740000       1.42740000      -0.39920000
H        1.73770000       3.61050000      -1.53150000
H       -0.01450000       3.41460000      -1.24510000
H        0.54720000       3.57600000       2.99960000
H        0.00780000       1.93110000       2.59760000
H        2.53520000       2.47100000       4.05480000
H        2.35670000       1.07380000       2.97590000
H        3.71220000       2.42760000       1.32330000
H        3.16460000       3.92790000       2.11270000
