13
Properties=species:S:1:pos:R:3 gdb_1500=T pbc="F F F"
C        0.01830000       1.40250000      -0.05280000
O       -0.00530000      -0.00590000       0.01360000
C        0.61650000      -0.60890000      -1.07470000
C        0.55660000      -2.12490000      -0.94160000
O        0.03960000      -2.70170000      -0.01680000
C        1.18920000      -2.83010000      -2.04790000
C        1.71460000      -3.40320000      -2.96670000
H        1.04770000       1.79330000      -0.06680000
H       -0.50530000       1.77790000      -0.94590000
H       -0.49030000       1.77410000       0.83910000
H        0.14350000      -0.33470000      -2.03640000
H        1.68020000      -0.31920000      -1.16690000
H        2.17480000      -3.92420000      -3.77120000
