18
Properties=species:S:1:pos:R:3 gdb_72692=T pbc="F F F"
O       -0.11210000       1.35100000      -0.33370000
C       -0.05140000      -0.00620000      -0.07440000
C        0.62650000      -0.94930000      -1.10010000
C       -0.62830000      -1.87430000      -1.11800000
C       -1.30250000      -1.03650000      -0.01180000
N       -0.86040000      -1.41800000       1.34890000
C        0.15470000      -0.32990000       1.41330000
C       -2.68940000      -0.54020000      -0.19930000
O       -3.25260000      -0.47180000      -1.26680000
H       -0.20660000       1.48620000      -1.28310000
H        0.82800000      -0.45750000      -2.05710000
H        1.55710000      -1.40320000      -0.74990000
H       -1.18770000      -1.81810000      -2.05400000
H       -0.46210000      -2.91580000      -0.84180000
H       -1.58960000      -1.33570000       2.05020000
H        1.15300000      -0.66390000       1.71730000
H       -0.13900000       0.52920000       2.02750000
H       -3.18110000      -0.17450000       0.73410000
