20
Properties=species:S:1:pos:R:3 gdb_90618=T pbc="F F F"
C       -0.04790000       1.56160000       0.01650000
C       -0.01260000       0.04400000      -0.04250000
C        1.06390000      -0.59760000      -0.97310000
C        1.65990000      -1.25390000       0.29770000
N        0.65030000      -0.56220000       1.17390000
C        0.16020000      -1.87170000       1.65180000
C       -0.29010000      -2.82940000       0.55930000
C        1.17680000      -2.62420000       0.80710000
O        2.03250000      -3.64210000       1.18400000
H        0.95220000       1.96630000       0.20170000
H       -0.42190000       1.98070000      -0.92460000
H       -0.70120000       1.89930000       0.82740000
H       -1.02490000      -0.34200000      -0.20490000
H        0.69530000      -1.28400000      -1.73990000
H        1.72570000       0.13190000      -1.44640000
H        2.71140000      -1.06380000       0.53150000
H       -0.15540000      -2.00240000       2.68100000
H       -0.66110000      -3.76920000       0.95780000
H       -0.79010000      -2.50160000      -0.34680000
H        2.05110000      -4.30010000       0.48070000
