20
Properties=species:S:1:pos:R:3 gdb_7773=T pbc="F F F"
C        0.03810000       1.55940000       0.02660000
C        0.03770000       0.02870000       0.01120000
C        0.72840000      -0.52920000      -1.24670000
C        0.99410000      -2.00910000      -1.15600000
C        0.89840000      -2.70600000      -0.02420000
C        0.55700000      -2.09080000       1.31040000
O        1.33450000      -2.66860000       2.35930000
C        0.69160000      -0.56360000       1.26840000
H        1.06080000       1.95120000       0.08140000
H       -0.42510000       1.96620000      -0.87900000
H       -0.51360000       1.94800000       0.88890000
H       -1.00780000      -0.31230000      -0.01050000
H        0.11990000      -0.31500000      -2.13530000
H        1.67900000       0.00210000      -1.41420000
H        1.27160000      -2.51550000      -2.07820000
H        1.08170000      -3.77780000      -0.01050000
H       -0.47570000      -2.35410000       1.57870000
H        2.26150000      -2.52890000       2.13510000
H        1.76200000      -0.30830000       1.27240000
H        0.26090000      -0.13230000       2.17830000
