23
Properties=species:S:1:pos:R:3 gdb_112733=T pbc="F F F"
C       -0.73660000       1.79310000       0.09460000
O       -0.58000000       0.53820000       0.71760000
C       -1.24710000      -0.50200000       0.05410000
C       -0.66430000      -1.07790000      -1.26600000
C       -1.02820000      -2.49530000      -0.73910000
C       -0.12100000      -3.67420000      -1.05340000
C       -1.09970000      -1.90770000       0.70230000
C        0.16810000      -2.05540000       1.53710000
O       -2.22930000      -2.39740000       1.40260000
H       -0.20150000       2.52850000       0.70070000
H       -0.31910000       1.80260000      -0.92330000
H       -1.79680000       2.08570000       0.03350000
H       -2.31680000      -0.26850000      -0.06060000
H       -1.10800000      -0.75790000      -2.21070000
H        0.41930000      -0.92750000      -1.30960000
H       -2.05700000      -2.73550000      -1.02710000
H        0.92180000      -3.46610000      -0.79280000
H       -0.43330000      -4.57020000      -0.50610000
H       -0.15210000      -3.91210000      -2.12230000
H        1.05770000      -1.71840000       0.99950000
H        0.09460000      -1.44230000       2.44180000
H        0.30570000      -3.10060000       1.82870000
H       -2.19860000      -2.05090000       2.30110000
