15
Properties=species:S:1:pos:R:3 gdb_22125=T pbc="F F F"
O       -0.27710000       1.29220000       0.57890000
N       -0.07370000      -0.08860000       0.44250000
C       -1.07410000      -0.64110000      -0.09890000
C       -2.43260000      -0.18690000      -0.58590000
C       -2.80020000      -1.69090000      -0.80810000
O       -3.17740000      -1.92310000      -2.14240000
C       -1.32390000      -2.09840000      -0.41540000
C       -3.80800000      -2.21030000       0.12580000
N       -4.59940000      -2.65150000       0.84370000
H        0.53360000       1.57850000       1.01400000
H       -3.04310000       0.36790000       0.12870000
H       -2.41430000       0.34920000      -1.53890000
H       -3.36340000      -2.86270000      -2.25610000
H       -0.78330000      -2.46580000      -1.29280000
H       -1.21370000      -2.80630000       0.40860000
