17
Properties=species:S:1:pos:R:3 gdb_20790=T pbc="F F F"
C       -0.35080000       1.51290000       0.01710000
C        0.01580000       0.01750000       0.04700000
C        0.77790000      -0.43550000      -1.15670000
C        2.11810000      -0.67600000      -1.38970000
C        3.28640000      -0.56870000      -0.46430000
N        2.26950000      -1.05540000      -2.69460000
N        1.11060000      -1.06340000      -3.28540000
N        0.20530000      -0.68640000      -2.36360000
H        0.54760000       2.13330000      -0.04760000
H       -0.98050000       1.75020000      -0.84620000
H       -0.89820000       1.79420000       0.92160000
H        0.62240000      -0.19100000       0.93410000
H       -0.89750000      -0.58120000       0.15520000
H        3.01210000      -0.82300000       0.56420000
H        4.07660000      -1.25000000      -0.78850000
H        3.70830000       0.44310000      -0.45240000
H       -0.76840000      -0.64570000      -2.62000000
