15
Properties=species:S:1:pos:R:3 gdb_13847=T pbc="F F F"
N        0.63420000      -0.11220000      -0.57560000
C       -0.19240000       0.38950000       0.37240000
O        0.07720000       1.30280000       1.12840000
C       -1.56190000      -0.31180000       0.45290000
O       -1.72510000      -1.32510000      -0.54280000
C       -2.04970000      -2.57760000       0.07300000
C       -2.02230000      -2.30230000       1.54940000
C       -1.75100000      -1.02180000       1.76680000
H        1.52600000       0.32680000      -0.73100000
H        0.28520000      -0.81370000      -1.20680000
H       -2.31350000       0.47880000       0.30500000
H       -3.03710000      -2.91480000      -0.27780000
H       -1.31780000      -3.34020000      -0.23220000
H       -2.20430000      -3.06550000       2.29490000
H       -1.65140000      -0.50820000       2.71230000
