19
Properties=species:S:1:pos:R:3 gdb_107579=T pbc="F F F"
C        0.40760000       1.55090000      -0.23030000
C       -0.08030000       0.11910000       0.02510000
C        0.53530000      -0.50430000       1.25900000
C        1.98680000      -1.02320000       1.23810000
C        0.85880000      -1.96870000       1.46540000
O        0.61090000      -2.37200000       2.79200000
C        0.31580000      -1.22850000       3.57950000
C        0.09040000      -0.05470000       2.61370000
O       -0.42300000       0.99720000       2.90710000
H        1.49300000       1.57660000      -0.37410000
H       -0.06080000       1.96600000      -1.12770000
H        0.16090000       2.19350000       0.61780000
H       -1.17130000       0.11720000       0.13450000
H        0.14630000      -0.51420000      -0.84150000
H        2.45640000      -1.01540000       0.25990000
H        2.65190000      -0.79040000       2.06280000
H        0.60210000      -2.73550000       0.74360000
H       -0.58790000      -1.41000000       4.17030000
H        1.13370000      -0.99410000       4.27600000
