14
Properties=species:S:1:pos:R:3 gdb_125457=T pbc="F F F"
C        0.07980000       1.46500000       0.00840000
C        0.04230000      -0.02620000      -0.01960000
N       -0.00550000      -0.65650000      -1.14130000
C       -0.03730000      -2.03560000      -1.06290000
O       -0.08600000      -2.62530000      -2.26560000
N       -0.02570000      -2.79050000      -0.01840000
O        0.02660000      -2.10790000       1.21370000
C        0.06180000      -0.74500000       1.27240000
N        0.10890000      -0.11760000       2.37630000
H        0.97670000       1.80530000       0.53530000
H        0.06100000       1.85610000      -1.00860000
H       -0.76880000       1.84820000       0.58380000
H       -0.10520000      -3.58180000      -2.11850000
H        0.11560000      -0.76710000       3.16530000
