21
Properties=species:S:1:pos:R:3 gdb_92159=T pbc="F F F"
C        0.01590000       1.43390000      -0.01330000
C        0.00790000      -0.07580000       0.02740000
C       -0.34600000      -0.79230000      -1.27100000
C       -0.09000000      -2.29510000      -1.19040000
C       -0.77020000      -2.28780000       0.21950000
C        0.27340000      -2.11590000       1.32760000
C        0.97880000      -0.77700000       0.97450000
O        2.23490000      -0.93420000       0.31420000
C       -1.28210000      -0.84570000      -0.07280000
H        0.99350000       1.80700000      -0.33740000
H       -0.73680000       1.81870000      -0.70890000
H       -0.19500000       1.86050000       0.97450000
H       -0.44830000      -0.21360000      -2.18260000
H       -0.69600000      -2.83750000      -1.92150000
H        0.94690000      -2.63820000      -1.24310000
H       -1.50650000      -3.07090000       0.40050000
H       -0.21870000      -2.03230000       2.30390000
H        0.98880000      -2.94430000       1.38000000
H        1.11870000      -0.16480000       1.87840000
H        2.86120000      -1.28990000       0.95230000
H       -2.27290000      -0.43510000       0.07640000
