23
Properties=species:S:1:pos:R:3 gdb_120739=T pbc="F F F"
C        0.11030000       1.51140000      -0.24550000
C        0.26420000       0.00010000      -0.06020000
C        0.31520000      -0.41560000       1.41760000
C        0.42430000      -1.91160000       1.58580000
O        1.68410000      -2.55360000       1.27690000
C        1.19380000      -2.61050000       2.62620000
C        2.08920000      -1.93590000       3.66730000
C        2.93430000      -2.97680000       4.40990000
O        2.91560000      -0.95440000       3.06520000
H        0.94190000       2.05310000       0.21850000
H        0.08590000       1.78220000      -1.30550000
H       -0.81620000       1.87530000       0.21290000
H       -0.56580000      -0.51930000      -0.55750000
H        1.17980000      -0.34470000      -0.55570000
H        1.14810000       0.07770000       1.92430000
H       -0.60650000      -0.09090000       1.92100000
H       -0.42120000      -2.46650000       1.17080000
H        0.83930000      -3.59930000       2.92350000
H        1.45240000      -1.41180000       4.39300000
H        3.54960000      -3.54640000       3.70500000
H        3.59830000      -2.47540000       5.11820000
H        2.30260000      -3.68080000       4.96280000
H        3.07820000      -1.27400000       2.16590000
