21
Properties=species:S:1:pos:R:3 gdb_40491=T pbc="F F F"
C       -0.29090000       1.22900000      -0.36130000
C        1.09630000       1.18700000       0.22390000
C        0.26970000      -0.07890000       0.14510000
C       -0.22390000      -0.75050000       1.37350000
C        0.48410000      -1.89250000       2.11140000
C       -0.86130000      -2.12540000       2.84740000
C       -1.02890000      -0.85030000       3.71790000
C       -1.17520000      -0.09890000       2.39600000
C       -1.58320000      -1.35860000       1.66430000
H       -1.07010000       1.71950000       0.21070000
H       -0.39390000       1.34800000      -1.43430000
H        1.94520000       1.29430000      -0.44230000
H        1.23800000       1.62450000       1.20620000
H        0.57180000      -0.77590000      -0.63390000
H        0.71920000      -2.70960000       1.42200000
H        1.36550000      -1.66550000       2.72450000
H       -1.12370000      -3.10750000       3.23530000
H       -1.97250000      -0.85590000       4.27110000
H       -0.20640000      -0.58920000       4.39510000
H       -1.56000000       0.90150000       2.24590000
H       -2.42670000      -1.57970000       1.02620000
