18
Properties=species:S:1:pos:R:3 gdb_67384=T pbc="F F F"
C       -0.05090000       1.49850000      -0.02200000
C       -0.00870000       0.00210000       0.01360000
C        0.46890000      -1.05130000      -0.96750000
C        1.28420000      -1.76300000       0.10810000
C        0.48490000      -0.93710000       1.15790000
O       -0.64990000      -1.69220000       1.60760000
C       -1.51090000      -1.82760000       0.54210000
N       -2.56230000      -2.52760000       0.53960000
C       -1.01280000      -0.96130000      -0.55900000
H        0.93890000       1.93400000       0.15500000
H       -0.39940000       1.85250000      -0.99750000
H       -0.73300000       1.89480000       0.73870000
H        0.73190000      -0.93300000      -2.01210000
H        1.21330000      -2.85100000       0.20160000
H        2.33460000      -1.46090000       0.07460000
H        0.99920000      -0.53310000       2.02750000
H       -2.68360000      -2.99000000       1.44230000
H       -1.71080000      -0.64940000      -1.32400000
