21
Properties=species:S:1:pos:R:3 gdb_37227=T pbc="F F F"
C        0.01100000       1.47660000      -0.02610000
C        1.39510000       0.87870000      -0.09100000
C        0.18390000      -0.00810000       0.13700000
C        0.48540000      -0.76620000      -1.18350000
C        1.71930000       0.11310000      -1.40390000
C        0.62330000       0.06640000      -2.42710000
C        0.89390000      -0.62400000      -3.78120000
C        0.27140000       0.60480000      -4.50360000
C       -0.20160000       1.16670000      -3.13290000
H       -0.18940000       1.99830000       0.90610000
H       -0.48590000       1.91600000      -0.87980000
H        2.16500000       1.15320000       0.61850000
H       -0.10540000      -0.52590000       1.04250000
H        0.41340000      -1.84570000      -1.25550000
H        2.72870000      -0.19830000      -1.64860000
H        1.94020000      -0.84530000      -4.01150000
H        0.31250000      -1.54200000      -3.91410000
H        1.01910000       1.23830000      -4.98630000
H       -0.51280000       0.38550000      -5.23120000
H       -1.27950000       1.07050000      -2.97010000
H        0.09140000       2.19790000      -2.92250000
