14
Properties=species:S:1:pos:R:3 gdb_130015=T pbc="F F F"
N        0.01180000       1.33760000       0.13640000
C       -0.01650000      -0.03880000       0.02410000
N       -1.10050000      -0.76950000       0.01070000
C       -0.60910000      -2.06690000       0.00490000
N       -1.13750000      -3.28490000      -0.02160000
N       -0.03340000      -4.07540000      -0.04440000
C        1.16790000      -3.40710000      -0.03800000
C        0.80610000      -2.08470000      -0.00080000
N        1.18610000      -0.74650000      -0.03460000
H        0.67510000       1.79780000      -0.47300000
H       -0.91640000       1.72690000       0.03820000
H       -0.16130000      -5.07170000      -0.02930000
H        2.10730000      -3.93380000      -0.04840000
H        2.06080000      -0.36800000       0.28780000
