18
Properties=species:S:1:pos:R:3 gdb_128854=T pbc="F F F"
C       -0.03440000       1.38560000       0.04800000
O        0.00590000      -0.02370000      -0.00180000
C        0.65470000      -0.51710000      -1.14450000
C        0.62050000      -2.04380000      -1.05290000
N        1.26690000      -2.67590000      -2.19010000
C        0.71420000      -3.01790000      -3.39350000
N        1.61430000      -3.51750000      -4.20010000
N        2.81730000      -3.50970000      -3.52050000
C        2.58620000      -3.00560000      -2.33610000
H        0.97690000       1.82010000       0.06470000
H       -0.57700000       1.80670000      -0.81210000
H       -0.55530000       1.66270000       0.96690000
H        0.15240000      -0.18430000      -2.06860000
H        1.69920000      -0.16670000      -1.19810000
H        1.11980000      -2.36680000      -0.13590000
H       -0.41670000      -2.38430000      -0.99890000
H       -0.33450000      -2.88900000      -3.61410000
H        3.31520000      -2.86510000      -1.55250000
