20
Properties=species:S:1:pos:R:3 gdb_10723=T pbc="F F F"
C        0.54780000       1.53170000      -0.17770000
C        0.02400000       0.10400000       0.06450000
C        0.19900000      -0.74690000      -1.19940000
C        0.67960000      -0.49590000       1.30830000
C        0.14230000       0.01640000       2.64520000
O        0.96820000      -0.35370000       3.72540000
C        1.36790000      -1.79420000       1.31710000
O        2.12020000      -0.56630000       1.28970000
H        1.62410000       1.50840000      -0.37340000
H        0.05080000       1.97930000      -1.04350000
H        0.37650000       2.18890000       0.67940000
H       -1.05160000       0.16570000       0.28460000
H        1.26030000      -0.88310000      -1.43350000
H       -0.26060000      -1.73400000      -1.09470000
H       -0.26740000      -0.25080000      -2.05590000
H        0.01900000       1.11000000       2.59390000
H       -0.85010000      -0.41320000       2.82560000
H        1.87310000      -0.21570000       3.41250000
H        1.43350000      -2.34450000       2.25270000
H        1.43570000      -2.38940000       0.41110000
