23
Properties=species:S:1:pos:R:3 gdb_119970=T pbc="F F F"
C       -0.45960000       1.46440000       0.15930000
C        0.28420000       0.15090000      -0.11160000
C        0.74790000      -0.50890000       1.17180000
C       -0.13970000      -1.49070000       1.89710000
O       -1.35560000      -1.82110000       1.30190000
C        1.14810000      -1.97550000       1.26440000
C        1.13180000      -2.91690000       0.07450000
C        0.85080000      -4.36730000       0.46020000
O       -0.51310000      -4.47210000       0.88020000
H        0.17270000       2.17700000       0.70120000
H       -0.77380000       1.94160000      -0.77450000
H       -1.35310000       1.28180000       0.76410000
H       -0.38290000      -0.52520000      -0.65210000
H        1.14710000       0.34160000      -0.76320000
H        1.32290000       0.15430000       1.81560000
H       -0.17130000      -1.43520000       2.98630000
H       -1.36680000      -2.78740000       1.21880000
H        1.95560000      -2.18800000       1.96320000
H        0.38160000      -2.61260000      -0.66020000
H        2.10230000      -2.88520000      -0.43640000
H        1.02830000      -5.02650000      -0.40210000
H        1.52690000      -4.68140000       1.26910000
H       -0.64790000      -5.32170000       1.30830000
