16
Properties=species:S:1:pos:R:3 gdb_39738=T pbc="F F F"
C       -0.19720000       1.44370000      -0.22590000
N        1.12400000       0.87840000       0.16130000
C       -0.00150000       0.00380000      -0.04180000
C       -0.36690000      -1.06540000       1.02920000
C       -1.29190000      -2.23720000       0.64180000
C       -2.17870000      -2.23480000      -0.61010000
N       -1.44600000      -1.26640000      -1.46830000
C       -0.28660000      -1.18500000      -0.94070000
N        0.07530000      -2.17400000       0.12650000
H       -0.67580000       2.04040000       0.54520000
H       -0.34370000       1.79860000      -1.24240000
H        1.76700000       0.84770000      -0.62470000
H        0.03840000      -0.99520000       2.03670000
H       -1.48270000      -2.95810000       1.43450000
H       -2.24990000      -3.25270000      -1.01890000
H       -3.19410000      -1.85100000      -0.47300000
