19
Properties=species:S:1:pos:R:3 gdb_80937=T pbc="F F F"
C        0.01910000       1.45680000       0.05130000
C        0.04410000      -0.04540000       0.00390000
C        0.58930000      -0.97530000      -1.13070000
C        0.06100000      -1.94580000      -0.03800000
C        0.73020000      -1.00570000       1.01330000
O        2.13110000      -0.89930000       1.05970000
C       -1.19670000      -1.01830000       0.06380000
C       -2.04580000      -1.04160000       1.23790000
C       -2.78060000      -1.04740000       2.19110000
H        1.03850000       1.85540000       0.07830000
H       -0.48620000       1.87350000      -0.82640000
H       -0.50790000       1.80780000       0.94500000
H        0.03990000      -0.95860000      -2.07620000
H        1.66710000      -0.96230000      -1.28200000
H        0.05070000      -3.03610000      -0.05610000
H        0.29480000      -1.03030000       2.01810000
H        2.46480000      -1.57520000       1.65690000
H       -1.79960000      -1.00360000      -0.84920000
H       -3.42560000      -1.05710000       3.03450000
