16
Properties=species:S:1:pos:R:3 gdb_44018=T pbc="F F F"
O       -0.07750000      -0.00730000       0.06210000
C        0.01870000       1.18370000      -0.05630000
N       -1.06650000       2.10120000      -0.25500000
C       -0.35710000       3.35260000      -0.08390000
C       -0.35730000       4.88850000      -0.07580000
C        1.15630000       4.45630000       0.05330000
C        0.80030000       3.24610000       0.96220000
C        1.27880000       2.09070000       0.02570000
C        0.94240000       3.26740000      -0.92550000
H       -1.89480000       1.89690000       0.29030000
H       -0.64210000       5.39190000      -1.00440000
H       -0.80470000       5.38370000       0.79120000
H        2.02220000       5.11130000       0.12590000
H        0.68410000       3.23690000       2.04680000
H        2.23540000       1.57600000       0.09360000
H        0.96930000       3.28780000      -2.01540000
