17
Properties=species:S:1:pos:R:3 gdb_81105=T pbc="F F F"
O        0.35620000       1.26050000      -0.32190000
C        0.04540000      -0.07470000      -0.08750000
C        0.15390000      -0.64790000       1.38200000
C       -1.25080000      -0.01330000       1.63090000
C       -1.50400000      -0.49430000       0.15650000
C       -2.59040000       0.04820000      -0.70480000
O       -3.30970000      -0.62380000      -1.40420000
C       -1.30120000      -1.99350000       0.29520000
C       -0.23200000      -2.09770000       1.09450000
H        0.07430000       1.80050000       0.42390000
H        0.53670000      -0.65530000      -0.87000000
H        1.01570000      -0.43990000       2.01600000
H       -1.87680000      -0.46510000       2.40310000
H       -1.24730000       1.07700000       1.74940000
H       -2.69210000       1.15700000      -0.68150000
H       -1.88840000      -2.74640000      -0.20830000
H        0.29960000      -2.97760000       1.42760000
