18
Properties=species:S:1:pos:R:3 gdb_55975=T pbc="F F F"
C        0.29210000       1.47760000       0.04590000
C        0.13240000      -0.02080000       0.23750000
O        0.98930000      -0.71830000       0.74520000
N       -1.05620000      -0.53740000      -0.22100000
C       -1.29770000      -1.94530000      -0.27690000
C       -2.42780000      -2.64130000       0.56090000
C       -2.78310000      -3.52770000      -0.67070000
C       -2.00260000      -2.51280000      -1.52230000
O       -2.08260000      -2.13100000      -2.65400000
H        0.94740000       1.86390000       0.82700000
H        0.76780000       1.66880000      -0.92210000
H       -0.66240000       2.01070000       0.06860000
H       -1.67790000       0.06490000      -0.73770000
H       -0.34270000      -2.45080000      -0.09930000
H       -2.10040000      -3.15190000       1.46630000
H       -3.23210000      -1.94370000       0.80530000
H       -2.29190000      -4.50530000      -0.65060000
H       -3.83400000      -3.66340000      -0.93210000
