19
Properties=species:S:1:pos:R:3 gdb_2365=T pbc="F F F"
C        0.01520000       1.44330000      -0.21050000
C        0.05990000      -0.04630000       0.15650000
C        0.74740000      -0.27230000       1.51100000
C       -1.33650000      -0.64590000       0.15910000
C       -1.98690000      -1.10360000      -1.13320000
C       -1.55140000      -2.10910000      -0.09460000
O       -0.40800000      -2.88580000      -0.32000000
H        1.02310000       1.87020000      -0.24550000
H       -0.45380000       1.59920000      -1.18740000
H       -0.55990000       2.01360000       0.52910000
H        0.64410000      -0.57450000      -0.60550000
H        0.82190000      -1.34020000       1.73350000
H        1.75790000       0.15010000       1.51510000
H        0.18560000       0.20680000       2.32240000
H       -2.00480000      -0.20160000       0.89470000
H       -3.04640000      -0.93280000      -1.29160000
H       -1.37780000      -1.04410000      -2.03030000
H       -2.33070000      -2.61180000       0.47850000
H       -0.61640000      -3.53040000      -1.00380000
