19
Properties=species:S:1:pos:R:3 gdb_88853=T pbc="F F F"
C       -0.47280000       1.27440000       0.01620000
N        0.04240000      -0.08370000       0.10810000
C        1.42500000      -0.31680000      -0.29190000
C        1.02340000      -0.44050000       1.13580000
C        1.53630000       0.53510000       2.17720000
C        0.61700000       0.64820000       3.42810000
O        1.47310000       0.27770000       4.53640000
C        2.66470000      -0.03400000       3.97620000
N        2.83010000       0.06610000       2.72450000
H        0.27800000       2.06710000       0.16240000
H       -0.90730000       1.41250000      -0.97900000
H       -1.27180000       1.41470000       0.75230000
H        1.61060000      -1.19990000      -0.89720000
H        2.03290000       0.54920000      -0.55400000
H        0.87020000      -1.44130000       1.54060000
H        1.70010000       1.51430000       1.71780000
H        0.24280000       1.65870000       3.60830000
H       -0.22680000      -0.04800000       3.40200000
H        3.41920000      -0.35580000       4.68570000
