12
Properties=species:S:1:pos:R:3 gdb_1461=T pbc="F F F"
O        0.15050000       1.40700000       0.00930000
C        0.00720000       0.01610000       0.00170000
C       -1.48980000      -0.31770000       0.01430000
O       -2.36310000       0.50110000       0.02680000
N       -1.70400000      -1.70890000       0.00930000
C       -2.92020000      -2.38820000       0.01710000
O       -4.01380000      -1.89840000       0.02990000
H        1.08980000       1.61270000      -0.00260000
H        0.45220000      -0.45420000      -0.89300000
H        0.46990000      -0.46580000       0.88110000
H       -0.88310000      -2.29810000      -0.00110000
H       -2.74080000      -3.48360000       0.01050000
