19
Properties=species:S:1:pos:R:3 gdb_17387=T pbc="F F F"
C        0.28150000       1.53910000      -0.06120000
C        1.45690000       0.64840000      -0.12400000
N        0.08530000       0.11280000       0.25370000
C        0.05440000      -0.58440000      -1.08340000
C        1.49260000      -0.13820000      -1.43310000
C        1.96450000       0.54170000      -2.74530000
C        3.31790000      -0.20770000      -2.60910000
C        2.63610000      -1.17280000      -1.60160000
H        0.18160000       2.18300000       0.80750000
H       -0.14640000       1.94270000      -0.97750000
H        2.26570000       0.69870000       0.60020000
H       -0.04060000      -1.66430000      -0.94200000
H       -0.75250000      -0.23660000      -1.73950000
H        1.38840000       0.18970000      -3.60730000
H        1.98140000       1.63500000      -2.76110000
H        3.74720000      -0.64490000      -3.51310000
H        4.08090000       0.41150000      -2.12930000
H        3.19110000      -1.45480000      -0.70250000
H        2.27750000      -2.08570000      -2.08830000
