16
Properties=species:S:1:pos:R:3 gdb_12272=T pbc="F F F"
C        0.18050000       1.21750000      -0.23780000
O       -0.22700000      -0.06770000       0.20380000
C        0.57520000      -0.58180000       1.21700000
C        0.20780000      -2.01340000       1.70210000
C        1.73240000      -2.38600000       1.77520000
O        2.19500000      -3.63130000       1.35440000
C        1.93630000      -1.20390000       0.82060000
O        2.64980000      -1.09280000      -0.13870000
H        1.18920000       1.19290000      -0.66650000
H       -0.53120000       1.52850000      -1.00530000
H        0.15870000       1.94730000       0.58620000
H        0.68050000       0.12110000       2.05980000
H       -0.36270000      -2.09230000       2.62660000
H       -0.28720000      -2.56090000       0.89720000
H        2.11780000      -2.17560000       2.78060000
H        2.49680000      -3.53010000       0.44250000
