15
Properties=species:S:1:pos:R:3 gdb_26898=T pbc="F F F"
N        0.04630000       1.33500000       0.15760000
C       -0.05260000      -0.02760000       0.04910000
C       -1.22400000      -0.72080000      -0.00900000
O       -2.41640000      -0.01200000      -0.08400000
C       -1.15970000      -2.14000000      -0.07800000
C        0.03180000      -2.78930000      -0.06390000
C        1.27150000      -2.05740000       0.00350000
N        2.43350000      -2.57130000       0.02390000
O        1.14150000      -0.64770000       0.03930000
H        0.90590000       1.73030000      -0.19420000
H       -0.79250000       1.82080000      -0.12520000
H       -2.86570000      -0.06170000       0.76750000
H       -2.09270000      -2.69080000      -0.14740000
H        0.11340000      -3.86620000      -0.11130000
H        3.15170000      -1.84970000       0.07160000
