18
Properties=species:S:1:pos:R:3 gdb_70191=T pbc="F F F"
C       -0.02740000       1.47790000      -0.05450000
C       -0.05320000      -0.02460000       0.05680000
C       -0.83920000      -0.68470000       1.17250000
C        0.68910000      -0.72310000       1.15620000
N        1.36540000      -1.93490000       0.79310000
C        1.11710000      -2.64200000      -0.34610000
O        1.60700000      -3.73080000      -0.57770000
C        0.13140000      -1.99060000      -1.31510000
O        0.01500000      -0.58180000      -1.22800000
H        0.86860000       1.80380000      -0.59120000
H       -0.90450000       1.83140000      -0.60550000
H       -0.03130000       1.94250000       0.93480000
H       -1.34080000      -0.04260000       1.88880000
H       -1.34580000      -1.62390000       0.98040000
H        1.23990000      -0.13160000       1.87950000
H        1.90710000      -2.42480000       1.49120000
H        0.46780000      -2.21580000      -2.32850000
H       -0.84460000      -2.48240000      -1.17700000
