11
Properties=species:S:1:pos:R:3 gdb_3968=T pbc="F F F"
O       -0.07990000       1.34200000       0.11370000
N        0.05140000      -0.04120000       0.07070000
C       -1.09410000      -0.62080000      -0.05780000
C       -2.40320000       0.00150000      -0.15340000
N       -3.49490000      -0.66180000      -0.28030000
O       -3.42980000      -2.04290000      -0.32930000
N       -2.22570000      -2.74350000      -0.24640000
C       -1.14550000      -2.06440000      -0.12000000
H        0.83180000       1.63850000       0.20940000
H       -2.51270000       1.07870000      -0.12060000
H       -0.22890000      -2.64390000      -0.05880000
