22
Properties=species:S:1:pos:R:3 gdb_111300=T pbc="F F F"
C       -0.13420000       1.60540000       0.19170000
C        0.00880000       0.09780000       0.00190000
C       -1.28970000      -0.60660000       0.38230000
C        0.60380000      -0.45920000      -1.34060000
C        0.96410000       0.45930000      -2.49450000
O        1.50230000      -0.35810000      -3.52560000
C        1.72620000      -1.05100000      -0.49350000
C        2.41100000      -0.02970000       0.31830000
N        1.12460000      -0.55140000       0.81230000
H        0.75370000       2.16830000      -0.10560000
H       -0.97780000       1.98750000      -0.39290000
H       -0.33110000       1.82440000       1.24660000
H       -2.10240000      -0.31510000      -0.29210000
H       -1.16780000      -1.69220000       0.33110000
H       -1.57820000      -0.34970000       1.40680000
H       -0.04300000      -1.24510000      -1.74080000
H        0.06070000       0.99170000      -2.83590000
H        1.69110000       1.22190000      -2.17800000
H        1.78750000       0.21250000      -4.24520000
H        2.10690000      -2.06260000      -0.58640000
H        3.24850000      -0.35860000       0.92660000
H        2.49430000       0.99710000      -0.02570000
