19
Properties=species:S:1:pos:R:3 gdb_19185=T pbc="F F F"
C       -0.16730000       1.59600000      -0.02040000
C        0.05690000       0.09770000       0.03930000
C        1.25570000      -0.61710000      -0.69300000
C        2.46490000       0.11970000      -0.07340000
C        2.15520000       0.12540000       1.22540000
C        0.79540000      -0.60900000       1.23900000
N        0.98840000      -1.74010000       0.26880000
C        2.01280000      -2.73970000       0.51710000
H        0.74180000       2.16250000       0.19380000
H       -0.52600000       1.88850000      -1.01350000
H       -0.93460000       1.89570000       0.70220000
H       -0.86810000      -0.44220000      -0.17890000
H        1.25400000      -0.84440000      -1.76010000
H        3.31790000       0.53370000      -0.59160000
H        2.68360000       0.54530000       2.06920000
H        0.31230000      -0.82800000       2.19250000
H        1.69410000      -3.37240000       1.35230000
H        2.10370000      -3.37950000      -0.36710000
H        3.00620000      -2.32720000       0.75200000
