14
Properties=species:S:1:pos:R:3 gdb_129727=T pbc="F F F"
N       -0.19810000       1.44270000      -0.09290000
C       -0.02610000       0.03320000      -0.05350000
C       -1.09310000      -0.83870000      -0.07020000
O       -2.41050000      -0.59450000      -0.12210000
N       -0.59270000      -2.09060000      -0.02290000
N        0.76410000      -2.11240000       0.02550000
C        1.11470000      -0.82160000       0.00640000
C        2.46920000      -0.40780000       0.04400000
C        3.59930000       0.00640000       0.07360000
H        0.26170000       1.85210000      -0.90110000
H        0.20440000       1.89060000       0.72530000
H       -2.48980000       0.37170000      -0.14800000
H       -1.10380000      -2.95670000      -0.02010000
H        4.60410000       0.34840000       0.10010000
