16
Properties=species:S:1:pos:R:3 gdb_84466=T pbc="F F F"
C       -0.18100000       1.39440000       0.04980000
N        0.09270000      -0.02350000       0.01970000
C        0.07070000      -0.83540000      -1.08390000
N        0.01060000      -2.10640000      -0.88220000
C        0.01280000      -2.28620000       0.54690000
C        1.23360000      -1.80940000       1.32590000
C        0.08330000      -0.86120000       1.18090000
C       -0.78000000      -3.35640000       1.08870000
N       -1.41650000      -4.20020000       1.55810000
H        0.61530000       1.94740000       0.56030000
H       -0.25350000       1.76330000      -0.97600000
H       -1.13130000       1.60890000       0.55660000
H        0.11120000      -0.38970000      -2.07220000
H        1.37040000      -2.25410000       2.30430000
H        2.13900000      -1.63200000       0.75550000
H       -0.49860000      -0.52710000       2.03250000
