16
Properties=species:S:1:pos:R:3 gdb_64877=T pbc="F F F"
O       -0.04630000       1.49010000      -0.09990000
C        0.00290000       0.08260000      -0.01350000
C        0.20910000      -0.44420000       1.44170000
C       -1.34110000      -0.51940000       1.60530000
C       -1.45370000      -0.44850000       0.05090000
C       -1.87370000      -1.76770000       2.25480000
O       -2.63040000      -1.79430000       3.18910000
C        0.88740000      -0.48050000      -1.04250000
N        1.60390000      -0.92290000      -1.83450000
H        0.84750000       1.83770000       0.00370000
H        0.67460000      -1.43400000       1.45550000
H        0.75160000       0.22410000       2.11260000
H       -1.75780000       0.35770000       2.09990000
H       -2.19880000       0.22630000      -0.37030000
H       -1.54710000      -1.43790000      -0.40380000
H       -1.49840000      -2.71150000       1.78840000
