23
Properties=species:S:1:pos:R:3 gdb_93850=T pbc="F F F"
C       -0.75820000       1.30440000       0.03290000
C       -0.05600000      -0.05080000       0.02200000
C        0.84150000      -0.30910000      -1.21680000
C        1.94620000      -1.30140000      -0.75410000
C        1.60730000      -1.61230000       0.71440000
O        2.68700000      -2.03690000       1.52910000
C        0.86190000      -0.35400000       1.22370000
C        1.82930000       0.78480000       1.57340000
O        0.05210000      -0.65320000       2.35480000
H       -0.04490000       2.13130000      -0.05260000
H       -1.45630000       1.38640000      -0.80690000
H       -1.32760000       1.43820000       0.95780000
H       -0.82840000      -0.82950000       0.05930000
H        0.25590000      -0.70130000      -2.05260000
H        1.28630000       0.62930000      -1.56490000
H        1.99380000      -2.20880000      -1.36070000
H        2.93820000      -0.83570000      -0.81110000
H        0.88410000      -2.43420000       0.76720000
H        3.42900000      -1.44270000       1.37390000
H        2.41520000       1.12060000       0.71080000
H        1.27460000       1.64100000       1.96310000
H        2.52800000       0.45830000       2.35160000
H        0.63360000      -1.03710000       3.02180000
