16
Properties=species:S:1:pos:R:3 gdb_26998=T pbc="F F F"
N        0.08040000       1.05230000       1.36610000
C        0.04580000      -0.02520000       0.46440000
C       -0.96320000      -0.35280000      -0.41130000
C       -2.27190000       0.31510000      -0.71740000
C       -3.26570000      -0.59940000      -1.27530000
C       -4.04990000      -1.37010000      -1.76150000
N       -0.52510000      -1.51020000      -1.03090000
C        0.67580000      -1.83410000      -0.49040000
N        1.05870000      -0.95070000       0.40900000
H        0.94820000       1.02110000       1.88870000
H        0.01420000       1.95310000       0.90660000
H       -2.65400000       0.76200000       0.21000000
H       -2.14190000       1.15390000      -1.41930000
H       -4.76840000      -2.03530000      -2.17280000
H       -1.06470000      -2.04170000      -1.69470000
H        1.22530000      -2.71560000      -0.78350000
