18
Properties=species:S:1:pos:R:3 gdb_44061=T pbc="F F F"
N        0.00260000       1.22870000       0.09740000
C       -0.06970000      -0.02880000       0.06300000
O        0.96740000      -0.92900000       0.09190000
C        0.26690000      -2.23630000       0.02640000
C        1.11010000      -3.09450000      -0.94390000
C        0.38890000      -2.26260000      -2.09810000
C       -0.75740000      -2.00990000      -1.05080000
C       -1.27070000      -0.92060000      -0.01810000
C       -0.83640000      -2.01300000       1.09470000
H        0.97830000       1.52840000       0.15180000
H        2.19580000      -3.02570000      -0.85690000
H        0.79890000      -4.14110000      -0.95370000
H        0.96270000      -1.37900000      -2.37230000
H        0.10000000      -2.81050000      -2.99620000
H       -1.47320000      -2.83300000      -1.09150000
H       -2.25120000      -0.45220000      -0.04100000
H       -1.55450000      -2.83010000       1.17080000
H       -0.55090000      -1.63630000       2.07950000
