20
Properties=species:S:1:pos:R:3 gdb_101460=T pbc="F F F"
C        0.01610000       1.59660000       0.01530000
C       -0.08850000       0.07190000      -0.06290000
C        0.77740000      -0.52680000      -1.17780000
O        2.14870000      -0.17710000      -1.04180000
C        0.63700000      -2.05770000      -1.27200000
C        1.40500000      -2.67120000      -2.47130000
O        2.27220000      -3.66760000      -1.86670000
C        2.10050000      -3.52530000      -0.53850000
N        1.25100000      -2.69790000      -0.08650000
H        1.05630000       1.90430000       0.14970000
H       -0.35190000       2.06680000      -0.90370000
H       -0.57160000       1.99030000       0.84980000
H        0.21050000      -0.38290000       0.88910000
H       -1.13120000      -0.22680000      -0.23180000
H        0.46910000      -0.09610000      -2.14040000
H        2.46180000      -0.62760000      -0.24630000
H       -0.42860000      -2.31490000      -1.29810000
H        0.76710000      -3.17680000      -3.19850000
H        2.04000000      -1.93720000      -2.97440000
H        2.72930000      -4.17080000       0.06590000
