18
Properties=species:S:1:pos:R:3 gdb_111373=T pbc="F F F"
C       -0.17130000       1.29450000       0.01810000
O        0.30880000      -0.03070000       0.14940000
C        0.72160000      -0.59790000      -1.05540000
C        1.33370000      -1.97600000      -0.92180000
C        0.32870000      -2.97140000      -0.50460000
N        0.37220000      -2.59830000      -1.92970000
C       -0.33830000      -1.25840000      -2.02950000
C       -1.73720000      -1.23880000      -1.65980000
C       -2.89920000      -1.22240000      -1.34880000
H        0.60190000       1.96050000      -0.39500000
H       -1.06050000       1.34330000      -0.62350000
H       -0.43730000       1.63890000       1.01970000
H        1.36120000       0.09810000      -1.61610000
H        2.39690000      -2.18750000      -0.94750000
H        0.68280000      -3.98270000      -0.33280000
H       -0.52180000      -2.66950000       0.09840000
H       -0.21310000      -0.89160000      -3.05170000
H       -3.92670000      -1.21100000      -1.08010000
