18
Properties=species:S:1:pos:R:3 gdb_62102=T pbc="F F F"
N       -0.85760000       1.02390000       0.05350000
C       -0.00890000      -0.17330000      -0.06160000
C       -0.25830000      -0.99650000      -1.33780000
N       -0.21930000      -0.11550000      -2.48860000
C        0.66530000      -0.34790000      -3.37390000
N        0.77500000       0.38400000      -4.52510000
H        0.27580000       1.26110000      -4.54150000
H        1.66660000       0.38450000      -4.99260000
C        1.47570000       0.25190000       0.01440000
O        2.38600000      -0.47790000      -0.28420000
O        1.64860000       1.49710000       0.46530000
H       -1.72970000       0.81360000       0.52480000
H        0.73040000       1.84060000       0.57690000
H       -0.17880000      -0.81200000       0.81340000
H        0.48610000      -1.80390000      -1.37950000
H       -1.25500000      -1.45230000      -1.26740000
H       -1.08140000       1.33280000      -0.89120000
H        1.37860000      -1.17940000      -3.31150000
