19
Properties=species:S:1:pos:R:3 gdb_122057=T pbc="F F F"
O        0.18670000       1.37040000       0.18430000
C        0.12850000      -0.04520000       0.12240000
C       -1.33980000      -0.44880000       0.08730000
C       -1.53380000      -1.96680000       0.02210000
C       -3.00390000      -2.37960000      -0.01970000
C       -3.69800000      -2.07610000      -1.34520000
O       -4.88940000      -2.13310000      -1.50180000
C       -3.22650000      -3.86740000       0.27760000
O       -2.35150000      -4.63050000       0.58550000
H        1.11090000       1.63440000       0.21090000
H        0.64070000      -0.42880000      -0.77550000
H        0.61790000      -0.50620000       0.99610000
H       -1.83270000      -0.04470000       0.98030000
H       -1.81050000       0.04340000      -0.77330000
H       -1.02650000      -2.37590000      -0.86200000
H       -1.06060000      -2.45170000       0.88160000
H       -3.59450000      -1.85440000       0.74660000
H       -3.01020000      -1.83670000      -2.18720000
H       -4.28590000      -4.18520000       0.18580000
