18
Properties=species:S:1:pos:R:3 gdb_8334=T pbc="F F F"
C       -0.70520000       1.34960000       0.19150000
C        0.04990000       0.04480000       0.04970000
C        0.79520000      -0.23710000      -1.27300000
C        2.05450000      -0.29870000      -0.39280000
C        2.97940000      -1.53130000      -0.33510000
O        4.10750000      -0.75010000      -0.77980000
C        3.35100000       0.47470000      -0.69080000
O        1.30850000       0.04960000       0.77830000
H       -0.09760000       2.19100000      -0.15640000
H       -1.63060000       1.32070000      -0.39420000
H       -0.96910000       1.52680000       1.23880000
H       -0.57450000      -0.79380000       0.38560000
H        0.53270000      -1.16080000      -1.79200000
H        0.78150000       0.59260000      -1.98420000
H        3.11140000      -1.91810000       0.68380000
H        2.75220000      -2.35850000      -1.01890000
H        3.38300000       1.05250000      -1.62290000
H        3.67140000       1.10740000       0.14740000
