18
Properties=species:S:1:pos:R:3 gdb_14043=T pbc="F F F"
C        0.04460000       1.53200000      -0.03930000
O        1.42790000       1.59050000       0.35370000
C        1.51290000       0.15680000       0.43650000
C        0.03540000      -0.01940000      -0.02850000
C       -0.96480000      -0.73280000       0.91340000
C       -1.34950000      -2.06230000       0.21340000
C       -0.89950000      -1.83850000      -1.21000000
C       -0.16070000      -0.73760000      -1.33530000
H       -0.61540000       2.00050000       0.70390000
H       -0.12820000       2.00390000      -1.01540000
H        2.27560000      -0.25070000      -0.23940000
H        1.72100000      -0.18770000       1.45880000
H       -0.55760000      -0.88120000       1.91730000
H       -1.85630000      -0.10540000       1.02130000
H       -0.83120000      -2.92590000       0.65230000
H       -2.42060000      -2.28070000       0.29120000
H       -1.13600000      -2.52700000      -2.01410000
H        0.30160000      -0.38800000      -2.25290000
