20
Properties=species:S:1:pos:R:3 gdb_111329=T pbc="F F F"
C       -0.11820000       1.60720000       0.07450000
C        0.03260000       0.08720000      -0.04610000
C        0.74060000      -0.54020000       1.14870000
C       -0.03890000      -0.63020000       2.48310000
O       -1.16190000      -1.49200000       2.26810000
C        0.11550000      -2.09290000       2.54140000
C        0.87770000      -2.09020000       1.22980000
C        0.92840000      -3.10060000       0.15630000
N        2.10010000      -2.85750000       1.03050000
H        0.85710000       2.10070000       0.15590000
H       -0.63010000       2.02420000      -0.79790000
H       -0.70210000       1.87840000       0.96060000
H       -0.95160000      -0.38250000      -0.14720000
H        0.58990000      -0.15390000      -0.96100000
H        1.72130000      -0.07550000       1.31710000
H       -0.11490000       0.09970000       3.28030000
H        0.19110000      -2.77500000       3.37960000
H        0.45120000      -4.06780000       0.28690000
H        0.96530000      -2.74810000      -0.87160000
H        2.79280000      -2.29670000       0.53910000
