16
Properties=species:S:1:pos:R:3 gdb_17022=T pbc="F F F"
C       -0.08530000       1.64710000       0.05390000
C        0.02550000       0.13930000      -0.03220000
C        0.79830000      -0.61250000      -1.15010000
C        2.07610000      -0.15590000      -0.41890000
N        1.16820000      -0.56770000       0.76090000
C        0.84980000      -1.78890000      -0.13810000
C       -0.35020000      -2.55090000       0.18100000
N       -1.28560000      -3.19050000       0.41010000
H        0.80640000       2.18690000      -0.27030000
H       -0.92190000       1.98320000      -0.56750000
H       -0.30160000       1.93950000       1.08640000
H       -0.94080000      -0.30260000       0.22730000
H        0.59060000      -0.66890000      -2.22340000
H        2.97040000      -0.77710000      -0.51240000
H        2.33860000       0.89960000      -0.42530000
H        1.70010000      -2.47030000      -0.22240000
