14
Properties=species:S:1:pos:R:3 gdb_6433=T pbc="F F F"
C       -0.16940000       1.75960000       0.12870000
C        0.02870000       0.26170000      -0.00970000
C        0.71420000      -0.28160000      -1.27350000
C        1.81360000      -0.70780000      -0.30330000
O        2.86910000      -1.24730000      -0.33800000
O        1.16670000      -0.21020000       0.81140000
C       -1.20650000      -0.50820000       0.43850000
O       -1.93380000      -1.10820000      -0.30650000
H        0.76200000       2.28450000      -0.10080000
H       -0.94810000       2.10300000      -0.55920000
H       -0.46760000       2.02020000       1.14900000
H        0.18860000      -1.10110000      -1.76540000
H        1.02710000       0.45980000      -2.01010000
H       -1.38250000      -0.46650000       1.53550000
