20
Properties=species:S:1:pos:R:3 gdb_15902=T pbc="F F F"
C       -0.82570000       1.29030000      -0.14070000
C        0.01080000       0.01910000      -0.07320000
C        1.43470000       0.01950000      -0.70190000
C        1.90540000      -0.87070000       0.46920000
O        3.19190000      -0.65320000       1.03500000
C        0.64170000      -0.44660000       1.28280000
C        0.94510000       0.63960000       2.31310000
O        1.70360000       0.12340000       3.39140000
H       -0.28600000       2.15630000       0.25580000
H       -1.09840000       1.51870000      -1.17700000
H       -1.75510000       1.18640000       0.42970000
H       -0.56770000      -0.81090000      -0.49260000
H        1.56050000      -0.35780000      -1.71930000
H        1.88770000       1.01750000      -0.64530000
H        1.87160000      -1.93260000       0.21120000
H        3.42630000       0.27010000       0.89610000
H        0.12310000      -1.26210000       1.79490000
H        1.45770000       1.49600000       1.83950000
H        0.01660000       1.03360000       2.73970000
H        2.47460000      -0.30000000       2.99030000
