23
Properties=species:S:1:pos:R:3 gdb_100061=T pbc="F F F"
C       -0.30140000       1.48840000       0.03630000
C        0.05900000       0.00080000       0.01180000
C        0.85400000      -0.48580000       1.24710000
C        2.22930000       0.17170000       1.35470000
O        0.14840000      -0.16800000       2.44650000
C        0.99840000      -2.01140000       1.16370000
C        1.57440000      -2.77570000       2.37530000
C        0.24420000      -3.54880000       2.34120000
O       -0.29680000      -2.65460000       1.33910000
H        0.58370000       2.12620000      -0.05230000
H       -0.96890000       1.73760000      -0.79420000
H       -0.80540000       1.74310000       0.97220000
H       -0.85890000      -0.59710000      -0.04460000
H        0.63390000      -0.23470000      -0.89310000
H        2.12560000       1.25120000       1.48530000
H        2.77760000      -0.21600000       2.21760000
H        2.82160000      -0.01220000       0.45290000
H       -0.62680000      -0.74600000       2.44320000
H        1.44540000      -2.29900000       0.20210000
H        2.48460000      -3.35160000       2.20610000
H        1.68670000      -2.14270000       3.25610000
H        0.31730000      -4.57490000       1.95950000
H       -0.35850000      -3.54960000       3.25560000
