14
Properties=species:S:1:pos:R:3 gdb_49451=T pbc="F F F"
O        0.11640000       0.05160000       0.55090000
C        0.02180000       1.15660000       0.08090000
N        1.03110000       1.80300000      -0.63010000
C        2.43090000       1.76750000      -0.21040000
C        3.37970000       1.90180000      -1.36530000
C        3.23000000       3.08050000      -1.98440000
C        2.19610000       3.91190000      -1.30100000
O        1.86310000       5.04130000      -1.55940000
C        1.65870000       3.04670000      -0.16040000
H       -0.90880000       1.75410000       0.09520000
H        2.67350000       1.19200000       0.67520000
H        4.05570000       1.10790000      -1.65880000
H        3.74590000       3.42220000      -2.87200000
H        1.30860000       3.50060000       0.76000000
