20
Properties=species:S:1:pos:R:3 gdb_110000=T pbc="F F F"
C        0.13390000       1.54080000       0.17480000
N        0.11670000       0.09290000       0.09920000
C       -1.19700000      -0.56450000       0.22920000
C       -0.54450000      -1.64490000       1.13540000
C       -0.38700000      -2.99640000       0.48760000
O        0.62250000      -3.65060000       0.43260000
C        0.67030000      -0.67680000       1.24230000
C        2.10720000      -1.14800000       1.04990000
O        2.98080000      -0.02410000       0.96650000
H        1.16500000       1.89480000       0.24830000
H       -0.31660000       1.96740000      -0.72800000
H       -0.41910000       1.93060000       1.05070000
H       -1.93870000       0.04300000       0.77070000
H       -1.64230000      -0.89870000      -0.71590000
H       -1.08360000      -1.81670000       2.07390000
H       -1.34070000      -3.38580000       0.05700000
H        0.61650000      -0.10170000       2.18150000
H        2.42910000      -1.73880000       1.91330000
H        2.19020000      -1.78150000       0.16320000
H        2.92020000       0.30820000       0.06580000
