15
Properties=species:S:1:pos:R:3 gdb_21230=T pbc="F F F"
C       -0.12870000       1.50290000      -0.25640000
N       -0.01150000       0.05350000      -0.23520000
C       -1.14900000      -0.59820000       0.38090000
C       -1.12160000      -2.08190000       0.20130000
N       -0.30590000      -2.69000000      -0.61780000
O       -0.65790000      -4.04230000      -0.48840000
C       -1.64900000      -4.07800000       0.40120000
N       -1.99360000      -2.92250000       0.86880000
H        0.73460000       1.93040000      -0.77340000
H       -1.04630000       1.87750000      -0.74610000
H       -0.12490000       1.88700000       0.77050000
H        0.12830000      -0.31020000      -1.17100000
H       -1.15520000      -0.38750000       1.45860000
H       -2.13030000      -0.24200000       0.00600000
H       -2.05860000      -5.04790000       0.64290000
