19
Properties=species:S:1:pos:R:3 gdb_39746=T pbc="F F F"
C       -0.02470000       1.51890000       0.00460000
C        1.27390000       0.73330000      -0.01380000
C       -0.04260000       0.02310000       0.03460000
C       -0.50360000      -0.94500000       1.10200000
C       -1.89900000      -1.44900000       0.74590000
C       -2.70830000      -0.65480000      -0.27690000
O       -1.89370000      -0.60640000      -1.45670000
C       -0.57820000      -0.94560000      -1.04710000
C       -0.70650000      -2.03250000       0.05290000
H       -0.27890000       2.05680000       0.91280000
H       -0.33980000       2.01040000      -0.91030000
H        1.84080000       0.70280000      -0.93950000
H        1.88860000       0.74270000       0.88110000
H       -0.10240000      -1.03900000       2.10480000
H       -2.41780000      -2.03200000       1.49790000
H       -3.65100000      -1.15500000      -0.52670000
H       -2.93550000       0.36250000       0.06720000
H        0.03320000      -1.11940000      -1.93240000
H       -0.41210000      -3.07210000       0.02640000
