21
Properties=species:S:1:pos:R:3 gdb_109652=T pbc="F F F"
C       -0.24790000       1.50780000       0.23640000
C       -0.11470000       0.05180000      -0.22510000
C       -1.41250000      -0.71570000      -0.08560000
C       -1.50130000      -2.21110000      -0.01690000
C       -0.29500000      -3.12090000      -0.08480000
C       -1.77010000      -1.38320000       1.24500000
O       -0.80390000      -1.31890000       2.25390000
C       -3.17530000      -1.26040000       1.70960000
O       -4.14310000      -1.29980000       0.98610000
H        0.68900000       2.05380000       0.08950000
H       -1.03120000       2.03220000      -0.32180000
H       -0.50370000       1.55620000       1.29940000
H        0.19510000       0.02330000      -1.27780000
H        0.67580000      -0.43720000       0.34930000
H       -2.27220000      -0.23930000      -0.55180000
H       -2.41320000      -2.62390000      -0.44080000
H        0.54930000      -2.72930000       0.48660000
H       -0.53580000      -4.11530000       0.30720000
H        0.03400000      -3.24950000      -1.12130000
H       -0.69960000      -2.19550000       2.63930000
H       -3.26640000      -1.11850000       2.81030000
