18
Properties=species:S:1:pos:R:3 gdb_109459=T pbc="F F F"
O       -0.04800000       1.42490000      -0.24870000
C       -0.02610000       0.09230000       0.20960000
C       -1.43470000      -0.50850000       0.16230000
C       -1.93990000      -0.67750000      -1.25320000
N       -2.06090000       0.11540000      -2.22120000
O       -2.12700000      -2.03700000      -1.15680000
C       -1.62970000      -2.02320000       0.21290000
C       -0.77650000      -3.13030000       0.72300000
C       -2.19770000      -2.93150000       1.24130000
H       -0.48610000       1.42100000      -1.11280000
H        0.65790000      -0.53840000      -0.38090000
H        0.35000000       0.11360000       1.23830000
H       -2.11190000       0.06120000       0.80350000
H       -2.36630000      -0.35650000      -3.07350000
H       -0.60160000      -3.96760000       0.05660000
H        0.05550000      -2.88540000       1.37470000
H       -2.33770000      -2.54770000       2.24640000
H       -2.95040000      -3.64020000       0.91400000
