17
Properties=species:S:1:pos:R:3 gdb_37104=T pbc="F F F"
C        0.02540000       1.43070000      -0.06980000
C        1.34080000       0.71480000       0.03010000
C        2.01020000       0.44430000       1.37080000
C        1.00530000      -0.45280000       2.08530000
C       -0.05420000      -0.75610000       1.32260000
C        0.00900000      -0.07960000       0.00400000
C        0.47800000      -0.75240000      -1.32890000
O        0.74060000       0.27320000      -2.29320000
C        1.73430000      -0.00400000      -1.29920000
H       -0.30980000       1.93870000       0.82800000
H       -0.23740000       1.91190000      -1.00340000
H        2.97910000      -0.05860000       1.24830000
H        2.21880000       1.36100000       1.93740000
H        1.13710000      -0.76510000       3.11750000
H       -0.87390000      -1.39590000       1.63330000
H        0.21670000      -1.73690000      -1.69890000
H        2.73600000      -0.23950000      -1.64150000
