19
Properties=species:S:1:pos:R:3 gdb_111299=T pbc="F F F"
O       -0.07210000       1.35550000       0.32000000
C        0.03010000       0.00870000      -0.16350000
C       -1.35900000      -0.59730000      -0.05880000
C       -1.52820000      -2.11660000      -0.14410000
C       -0.84450000      -2.80330000       1.02510000
C       -2.14950000      -2.14040000       1.27100000
O       -3.19460000      -2.87390000       1.79560000
C       -1.99320000      -0.62620000       1.38440000
O       -1.20460000      -0.17470000       2.45730000
H        0.80410000       1.75190000       0.30060000
H        0.37540000      -0.00490000      -1.20760000
H        0.75110000      -0.56020000       0.43670000
H       -2.02280000      -0.07230000      -0.75200000
H       -1.81520000      -2.66800000      -1.03110000
H       -0.91470000      -3.88580000       0.99560000
H        0.06950000      -2.42120000       1.46930000
H       -4.02030000      -2.44400000       1.54640000
H       -2.97850000      -0.13260000       1.37680000
H       -0.83310000       0.67190000       2.17210000
