18
Properties=species:S:1:pos:R:3 gdb_89043=T pbc="F F F"
N        0.31920000       0.58570000      -0.28980000
C       -0.14970000      -0.61740000       0.12850000
O        0.58810000      -1.53190000       0.45350000
C       -1.68300000      -0.74420000       0.12720000
O       -2.09350000      -1.85950000       0.86150000
C       -2.46560000      -3.01690000       0.16180000
C       -1.61490000      -3.57150000      -0.97000000
C       -1.60090000      -4.22950000       0.39450000
O       -0.48710000      -4.13980000       1.20840000
H        1.31480000       0.73590000      -0.31090000
H       -0.28960000       1.35890000      -0.49450000
H       -2.11760000       0.15250000       0.58930000
H       -2.02570000      -0.78010000      -0.91620000
H       -3.54530000      -3.13550000       0.08560000
H       -2.12890000      -4.04670000      -1.79920000
H       -0.71130000      -3.03630000      -1.23860000
H       -2.09280000      -5.19010000       0.51100000
H       -0.12760000      -3.23910000       1.12940000
