14
Properties=species:S:1:pos:R:3 gdb_129369=T pbc="F F F"
N       -0.08730000       1.36530000       0.10280000
C        0.05950000      -0.00090000       0.04690000
N        1.15670000      -0.67580000       0.01060000
C       -1.17570000      -0.76910000       0.06860000
C       -1.38090000      -2.12480000       0.06910000
N       -0.48150000      -3.14530000       0.15510000
N       -2.74350000      -2.31490000       0.02700000
N       -3.34490000      -1.19980000       0.00630000
O       -2.38870000      -0.17420000       0.03980000
H        0.70310000       1.93230000      -0.15800000
H       -0.99340000       1.75320000      -0.10700000
H        1.97590000      -0.06890000      -0.00790000
H        0.46910000      -2.84940000      -0.03360000
H       -0.77340000      -4.02420000      -0.24310000
