16
Properties=species:S:1:pos:R:3 gdb_82685=T pbc="F F F"
N        0.20770000       1.45510000       0.12850000
C        0.00980000       0.04100000       0.05540000
C        0.17390000      -0.74230000       1.37780000
N       -0.85290000      -0.06770000       2.25660000
C       -1.85400000      -0.79650000       1.44950000
C       -0.89820000      -1.79250000       0.88010000
C       -1.39090000      -0.64660000      -0.01410000
C       -2.28660000      -0.70580000      -1.11520000
N       -2.99690000      -0.73090000      -2.03010000
H       -0.02600000       1.91790000      -0.74260000
H       -0.36190000       1.84160000       0.87410000
H        0.64070000      -0.39460000      -0.72430000
H        1.15320000      -0.93220000       1.80850000
H       -0.81950000      -0.51680000       3.17080000
H       -2.90220000      -0.87200000       1.70710000
H       -0.91850000      -2.85890000       0.70430000
