18
Properties=species:S:1:pos:R:3 gdb_57216=T pbc="F F F"
C        0.24320000       1.06230000       0.95310000
C        0.10510000      -0.09030000      -0.01730000
C        0.73170000      -0.02910000      -1.34060000
O        1.31670000      -0.81280000      -0.29070000
C       -1.09730000      -1.01540000       0.16290000
N       -1.04380000      -1.65130000       1.48970000
H       -0.08010000      -1.86050000       1.73350000
H       -2.45080000      -0.40470000       1.87240000
H       -1.53810000      -2.53820000       1.47470000
C       -2.39660000      -0.19620000       0.02790000
O       -2.80800000       0.20340000      -1.02740000
O       -2.99640000       0.05750000       1.19910000
H        1.17980000       1.59260000       0.76870000
H       -0.58630000       1.76720000       0.84140000
H        0.24730000       0.70840000       1.98850000
H        0.30640000      -0.59230000      -2.16850000
H        1.29230000       0.86060000      -1.62170000
H       -1.08590000      -1.73580000      -0.66220000
