20
Properties=species:S:1:pos:R:3 gdb_13386=T pbc="F F F"
C        0.24300000       1.42190000      -0.18350000
C        0.01800000      -0.04060000       0.16290000
O       -1.31280000      -0.37980000      -0.17310000
C       -1.63560000      -1.73880000       0.03210000
C       -1.78200000      -2.15940000       1.52520000
C       -2.98910000      -3.06510000       1.50830000
C       -3.64780000      -3.00320000       0.35210000
C       -3.00450000      -2.04510000      -0.61810000
H        1.26740000       1.71970000       0.05980000
H        0.07380000       1.59330000      -1.25040000
H       -0.44640000       2.05900000       0.37800000
H        0.72260000      -0.68320000      -0.39270000
H        0.20550000      -0.21220000       1.23520000
H       -0.86180000      -2.36900000      -0.43560000
H       -0.88420000      -2.64750000       1.92090000
H       -1.96050000      -1.26960000       2.14580000
H       -3.28260000      -3.66210000       2.36500000
H       -4.56020000      -3.54240000       0.12230000
H       -3.57920000      -1.11340000      -0.70740000
H       -2.90280000      -2.45030000      -1.63060000
