19
Properties=species:S:1:pos:R:3 gdb_30661=T pbc="F F F"
C        0.17200000       1.57100000       0.14970000
C        0.07400000       0.04990000      -0.02390000
N        0.65510000      -0.73420000       1.06780000
C       -0.06270000      -0.76100000       2.32940000
C        2.02210000      -0.80040000       1.17480000
C        2.89610000      -0.98960000       2.20710000
N        4.18930000      -1.06090000       1.69110000
C        4.04620000      -0.90250000       0.42370000
O        2.74750000      -0.73640000       0.01950000
H        1.21690000       1.88900000       0.21170000
H       -0.28700000       2.07850000      -0.70470000
H       -0.34270000       1.90740000       1.05510000
H       -0.97500000      -0.25380000      -0.10840000
H        0.56890000      -0.25160000      -0.95000000
H        0.25590000      -1.63090000       2.91190000
H        0.09740000       0.13830000       2.94460000
H       -1.13230000      -0.85800000       2.12730000
H        2.69780000      -1.07610000       3.26130000
H        4.79370000      -0.87140000      -0.35180000
