15
Properties=species:S:1:pos:R:3 gdb_44976=T pbc="F F F"
N       -0.09020000       1.05560000      -0.69800000
C       -0.06470000      -0.02000000      -0.04890000
C       -1.26780000      -0.89190000       0.27910000
C       -0.67700000      -2.14070000       0.89960000
C        0.33580000      -2.92250000       0.09940000
C        0.80330000      -1.84130000       1.04760000
O        1.08690000      -0.58740000       0.46520000
C        1.57150000      -2.13250000       2.22400000
N        2.17930000      -2.39470000       3.17190000
H        0.84400000       1.45690000      -0.78880000
H       -1.91520000      -0.36580000       0.98690000
H       -1.85320000      -1.07760000      -0.62460000
H       -1.20720000      -2.64590000       1.69620000
H        0.51500000      -3.95060000       0.39090000
H        0.45760000      -2.70990000      -0.95790000
