19
Properties=species:S:1:pos:R:3 gdb_2047=T pbc="F F F"
C       -0.03560000       1.53330000       0.05550000
C        0.06040000       0.01870000       0.04650000
C       -1.17930000      -0.64900000      -0.52990000
C        1.33930000      -0.72730000      -0.25130000
C        2.58080000      -0.02510000       0.31380000
C        1.94370000      -0.07410000       1.74070000
C        0.71210000      -0.77550000       1.15340000
H        0.85200000       2.01670000       0.46900000
H       -0.17510000       1.91690000      -0.96220000
H       -0.89630000       1.86160000       0.65040000
H       -1.35180000      -0.33180000      -1.56510000
H       -1.08680000      -1.73990000      -0.52620000
H       -2.07250000      -0.38740000       0.04950000
H        1.36370000      -1.50210000      -1.01010000
H        3.47720000      -0.64590000       0.24750000
H        2.81830000       0.96100000      -0.09820000
H        2.50890000      -0.72030000       2.41610000
H        1.77070000       0.88050000       2.24810000
H        0.18380000      -1.59270000       1.63260000
