20
Properties=species:S:1:pos:R:3 gdb_57059=T pbc="F F F"
C       -0.13010000       1.55830000      -0.08660000
C        0.00230000       0.03780000      -0.05290000
C        1.20390000      -0.51760000      -0.87700000
C        2.01180000      -0.68590000       0.43840000
C        0.67830000      -0.56540000       1.22470000
C        0.65440000       0.23980000       2.52400000
O       -0.65650000       0.44790000       3.02230000
C        1.51560000      -0.40480000       3.54030000
N        2.16900000      -0.94350000       4.32690000
H        0.83010000       2.05830000       0.08630000
H       -0.48850000       1.88270000      -1.06890000
H       -0.83840000       1.91140000       0.66890000
H       -0.96620000      -0.41070000      -0.29020000
H        0.97850000      -1.47830000      -1.34690000
H        1.62290000       0.14840000      -1.63560000
H        2.58680000      -1.60350000       0.57260000
H        2.67560000       0.16330000       0.62820000
H        0.26990000      -1.56150000       1.43300000
H        1.05280000       1.24360000       2.34380000
H       -1.05030000      -0.41410000       3.20070000
