17
Properties=species:S:1:pos:R:3 gdb_76042=T pbc="F F F"
C       -0.27860000       1.46290000      -0.01580000
N        0.02900000       0.03950000       0.09670000
C        1.34440000      -0.45740000      -0.27870000
C        2.40280000       0.44140000      -0.66730000
N        3.23940000       1.16770000      -1.00060000
C        0.88720000      -0.44490000       1.17890000
C        1.53620000       0.45160000       2.20830000
C        0.42800000      -1.78910000       1.68260000
O        0.69360000      -2.22940000       2.76960000
H        0.56760000       2.13280000       0.17820000
H       -0.64290000       1.65220000      -1.02890000
H       -1.08330000       1.69420000       0.68680000
H        1.34250000      -1.39210000      -0.83570000
H        2.11920000       1.25660000       1.76020000
H        0.77520000       0.88790000       2.86280000
H        2.19570000      -0.15330000       2.83430000
H       -0.19400000      -2.34440000       0.94720000
