19
Properties=species:S:1:pos:R:3 gdb_96248=T pbc="F F F"
O        0.22860000       1.37140000       0.19350000
C        0.04340000      -0.02430000      -0.02690000
C       -1.44590000      -0.36880000       0.08410000
O       -2.27390000       0.51000000      -0.66390000
C       -2.11840000       0.45560000      -2.09320000
C       -2.04730000      -0.93310000      -2.65780000
C       -0.90380000      -1.62640000      -2.75140000
C        0.42350000      -1.15470000      -2.35230000
C        0.79610000      -0.45090000      -1.27300000
H       -0.56880000       1.79510000      -0.15130000
H        0.54410000      -0.53180000       0.81210000
H       -1.62430000      -1.41820000      -0.17620000
H       -1.75390000      -0.21240000       1.12180000
H       -2.98900000       0.99140000      -2.48080000
H       -1.21530000       1.00960000      -2.38440000
H       -2.97260000      -1.38580000      -3.00290000
H       -0.92910000      -2.60540000      -3.22800000
H        1.21740000      -1.42730000      -3.04790000
H        1.84410000      -0.16110000      -1.21420000
