19
Properties=species:S:1:pos:R:3 gdb_61857=T pbc="F F F"
O       -0.13240000       1.38330000       0.10040000
C        0.05330000      -0.02360000      -0.00710000
C        0.80950000      -0.29730000      -1.31850000
C        0.09840000       0.27820000      -2.52660000
O       -0.20870000      -0.36730000      -3.49700000
C        0.78080000      -0.61020000       1.20720000
C        1.92000000       0.28710000       1.74060000
O        1.02140000       0.85940000       2.72800000
C        0.10110000      -0.24780000       2.54450000
H       -0.00500000       1.65110000       1.02040000
H       -0.93300000      -0.51440000      -0.06790000
H        1.79760000       0.17940000      -1.25210000
H        0.94350000      -1.37120000      -1.47720000
H       -0.12620000       1.36240000      -2.45680000
H        1.00820000      -1.66510000       1.04150000
H        2.73940000      -0.26350000       2.21890000
H        2.32640000       1.04940000       1.06970000
H       -0.94310000       0.08250000       2.51320000
H        0.22110000      -1.00340000       3.33130000
