20
Properties=species:S:1:pos:R:3 gdb_47556=T pbc="F F F"
O        0.00840000      -0.09670000      -0.00340000
C        0.02580000       1.11270000       0.02750000
C       -1.26290000       1.93160000       0.05910000
C       -1.54000000       2.80270000      -1.18870000
C       -0.46710000       3.86340000      -1.49250000
C        0.77420000       3.27280000      -2.13660000
N        2.08980000       3.70640000      -1.63280000
C        1.65240000       2.31730000      -1.41090000
C        1.34060000       1.89140000       0.01630000
H       -2.08470000       1.22540000       0.20440000
H       -1.22210000       2.58920000       0.93850000
H       -1.67220000       2.15190000      -2.06230000
H       -2.50340000       3.29960000      -1.03000000
H       -0.88690000       4.62330000      -2.16190000
H       -0.18150000       4.38840000      -0.57470000
H        0.68610000       3.10610000      -3.20950000
H        2.76730000       3.74690000      -2.38980000
H        2.11640000       1.53930000      -2.01320000
H        1.26950000       2.78320000       0.64470000
H        2.13170000       1.24640000       0.40730000
