21
Properties=species:S:1:pos:R:3 gdb_113392=T pbc="F F F"
C        0.22920000       1.05560000      -0.18240000
O       -0.35460000      -0.09700000       0.39370000
C        0.47550000      -0.71780000       1.32360000
C        0.14730000      -2.12460000       1.69370000
C        1.41440000      -1.83710000       0.90340000
C        1.43260000      -2.26360000      -0.54260000
O        1.72170000      -3.66970000      -0.58120000
C        2.74260000      -1.98420000       1.62400000
O        3.07650000      -3.33240000       1.89820000
H        1.14630000       0.81610000      -0.73980000
H       -0.50640000       1.48070000      -0.86890000
H        0.47700000       1.80570000       0.58350000
H        0.83850000      -0.04800000       2.10600000
H        0.24730000      -2.43350000       2.72790000
H       -0.67400000      -2.58640000       1.15690000
H        0.46720000      -2.05020000      -1.01760000
H        2.21180000      -1.70780000      -1.08740000
H        1.90080000      -3.91920000      -1.49270000
H        3.53120000      -1.49180000       1.02680000
H        2.70640000      -1.46880000       2.59120000
H        2.85860000      -3.82780000       1.09710000
