16
Properties=species:S:1:pos:R:3 gdb_128918=T pbc="F F F"
N       -0.03540000      -1.12950000      -0.10170000
C       -0.04220000       0.02310000      -0.02140000
C       -0.01680000       1.47840000       0.08150000
C        1.41350000       2.03650000      -0.07670000
N        1.41550000       3.48020000       0.01230000
C        2.00770000       4.26560000       0.94860000
C        1.71730000       5.57120000       0.61490000
C        0.93240000       5.46720000      -0.55160000
N        0.75040000       4.20030000      -0.91490000
H       -0.65240000       1.91630000      -0.69370000
H       -0.42970000       1.77950000       1.05010000
H        2.06700000       1.64670000       0.70630000
H        1.82090000       1.73310000      -1.04490000
H        2.58230000       3.83990000       1.75630000
H        2.02910000       6.46230000       1.13460000
H        0.49590000       6.25950000      -1.14210000
