20
Properties=species:S:1:pos:R:3 gdb_95023=T pbc="F F F"
C        0.17900000       1.50200000      -0.25750000
C       -0.09170000       0.04680000       0.12010000
O        0.08200000      -0.82680000      -1.00810000
C        1.25870000      -1.62620000      -0.89170000
C        1.57500000      -1.72870000       0.60620000
C        2.87720000      -1.09500000       1.14430000
N        2.99270000       0.23030000       0.49920000
C        2.12800000       0.06810000       1.69420000
C        0.78270000      -0.54140000       1.24540000
H        1.21630000       1.63720000      -0.56650000
H       -0.47950000       1.79780000      -1.07910000
H       -0.02430000       2.16130000       0.59480000
H       -1.14940000      -0.04610000       0.40110000
H        1.03600000      -2.59650000      -1.34780000
H        2.09430000      -1.16450000      -1.43140000
H        1.35090000      -2.70450000       1.03790000
H        3.75240000      -1.60550000       1.52600000
H        3.86520000       0.64890000       0.81860000
H        2.31170000       0.65470000       2.58600000
H        0.19250000      -0.84260000       2.11280000
