12
Properties=species:S:1:pos:R:3 gdb_50792=T pbc="F F F"
N        0.28440000       1.24790000       0.00400000
C        0.02680000       0.01040000       0.00120000
N       -1.26930000      -0.51530000       0.01120000
C       -2.47510000       0.16770000       0.02710000
O       -2.62710000       1.36270000       0.03570000
C       -3.61940000      -0.74700000       0.03310000
C       -4.61660000      -1.43040000       0.03890000
C       -5.73280000      -2.21650000       0.04530000
N       -6.67620000      -2.89370000       0.05070000
H        1.29300000       1.39210000      -0.00490000
H        0.76210000      -0.80310000      -0.00930000
H       -1.33770000      -1.52180000       0.00640000
