15
Properties=species:S:1:pos:R:3 gdb_9053=T pbc="F F F"
C        0.03020000       1.50630000      -0.02600000
C       -0.00030000      -0.02840000       0.02280000
O        0.70280000      -0.54270000       1.16150000
C        2.10230000      -0.52750000       1.01670000
C        2.70210000      -1.24530000       2.14540000
N        3.20860000      -1.80070000       3.02140000
C       -1.36900000      -0.53210000       0.09380000
C       -2.50600000      -0.91610000       0.12820000
H        1.05380000       1.87730000      -0.12920000
H       -0.54710000       1.86370000      -0.88250000
H       -0.40680000       1.91490000       0.88810000
H        0.47190000      -0.42740000      -0.89080000
H        2.41710000      -1.02060000       0.08230000
H        2.51510000       0.49270000       1.00210000
H       -3.50760000      -1.26820000       0.16460000
