15
Properties=species:S:1:pos:R:3 gdb_94432=T pbc="F F F"
O        0.28490000       1.26020000      -0.13740000
C        0.13680000      -0.08930000       0.20160000
C       -0.03260000      -0.34830000       1.70690000
O       -1.26570000      -1.07440000       1.47070000
C       -1.28580000      -0.71830000       0.09950000
C       -2.46410000       0.05500000      -0.51020000
O       -2.57700000      -0.95840000      -1.56600000
C       -1.61720000      -1.75570000      -0.98850000
O       -1.24270000      -2.82760000      -1.33660000
H        0.64020000       1.32410000      -1.02900000
H        0.89620000      -0.72430000      -0.26610000
H        0.72150000      -0.96900000       2.19840000
H       -0.20100000       0.57000000       2.28040000
H       -3.35970000       0.07560000       0.11340000
H       -2.23700000       1.03800000      -0.92490000
