19
Properties=species:S:1:pos:R:3 gdb_94206=T pbc="F F F"
C       -0.31340000       1.41760000       0.19900000
C        0.00640000      -0.06440000       0.13480000
O        1.00230000      -0.38110000      -0.87090000
C        1.98610000      -0.72760000       0.12090000
C        0.93070000      -0.64830000       1.25420000
O        1.21450000       0.14100000       2.37580000
C        0.46460000      -2.00560000       1.72630000
C        0.63570000      -2.47550000       3.10480000
O       -0.63770000      -2.02530000       2.62930000
H        0.58980000       2.02600000       0.32680000
H       -0.78650000       1.73580000      -0.73440000
H       -1.00140000       1.62670000       1.02430000
H       -0.91240000      -0.63940000      -0.03200000
H        2.44820000      -1.70320000      -0.07060000
H        2.77760000       0.02930000       0.21450000
H        1.37770000       1.04420000       2.08770000
H        0.39940000      -2.74290000       0.92440000
H        0.70950000      -3.54450000       3.29990000
H        1.11350000      -1.82130000       3.82820000
