15
Properties=species:S:1:pos:R:3 gdb_33690=T pbc="F F F"
C       -0.03570000      -1.18390000      -0.05120000
C       -0.00240000       0.01930000      -0.00590000
C        0.03980000       1.43210000       0.04200000
C       -0.98140000       2.34520000       0.73910000
O       -0.35550000       3.34510000       1.47920000
C        0.77540000       3.60010000       0.69300000
C        0.49750000       3.39640000      -0.78450000
C        1.28370000       2.35220000       0.00160000
C       -0.75270000       2.50100000      -0.74390000
H       -0.06470000      -2.24420000      -0.09050000
H       -1.89280000       1.95480000       1.16940000
H        1.42610000       4.37330000       1.07680000
H        0.80100000       4.06080000      -1.58030000
H        2.31460000       2.03610000      -0.06190000
H       -1.50140000       2.36740000      -1.51120000
