19
Properties=species:S:1:pos:R:3 gdb_39315=T pbc="F F F"
C       -0.00230000       1.58090000       0.03540000
C        1.28210000       0.80580000       0.00640000
C        2.12450000       0.73820000       1.26590000
O        1.31800000       0.69250000       2.43430000
C        0.52530000      -0.47230000       2.50150000
C       -0.78300000      -0.20640000       3.25400000
O       -1.53860000      -0.19960000       2.02320000
C       -0.39360000      -0.68820000       1.27440000
C       -0.04690000       0.07020000       0.01860000
H       -0.27700000       2.06770000       0.96350000
H       -0.31590000       2.09820000      -0.86400000
H        1.85260000       0.78850000      -0.91760000
H        2.79810000      -0.13510000       1.23020000
H        2.74510000       1.63420000       1.36920000
H        1.13030000      -1.33410000       2.81510000
H       -1.09650000      -1.01390000       3.92830000
H       -0.82450000       0.75400000       3.77770000
H       -0.52570000      -1.75360000       1.04160000
H       -0.36270000      -0.39450000      -0.90940000
