16
Properties=species:S:1:pos:R:3 gdb_75979=T pbc="F F F"
O        0.55250000       0.26860000      -0.96560000
C       -0.08470000      -0.44520000       0.03290000
C        0.60240000      -0.28630000       1.38270000
N        1.66060000       0.40220000       1.44520000
O        0.01660000      -0.87560000       2.44940000
C       -1.21430000      -1.58470000       2.21380000
C       -2.20990000      -0.72990000       1.43380000
C       -1.57370000      -0.08340000       0.20100000
O       -2.17010000       0.63530000      -0.55200000
H        1.29940000       0.71210000      -0.52820000
H       -0.08380000      -1.52920000      -0.20270000
H        2.03420000       0.45920000       2.39140000
H       -0.99620000      -2.52450000       1.69170000
H       -1.59040000      -1.83360000       3.20720000
H       -3.07260000      -1.32830000       1.12320000
H       -2.59530000       0.08120000       2.06180000
