15
Properties=species:S:1:pos:R:3 gdb_20559=T pbc="F F F"
C       -0.00540000       1.55160000       0.01660000
C       -0.03430000       0.02190000      -0.01770000
C       -1.45070000      -0.55660000       0.01860000
N        0.67470000      -0.46550000      -1.21420000
N        0.30480000      -0.20810000      -2.45640000
N        1.18010000      -0.81260000      -3.20500000
N        2.07510000      -1.43300000      -2.41580000
N        1.76240000      -1.21820000      -1.17250000
H        1.02130000       1.92580000      -0.00610000
H       -0.54860000       1.96800000      -0.83560000
H       -0.48060000       1.90170000       0.93680000
H        0.55530000      -0.38160000       0.80910000
H       -2.03470000      -0.20270000      -0.83490000
H       -1.42950000      -1.64920000      -0.00080000
H       -1.94870000      -0.23670000       0.93770000
