16
Properties=species:S:1:pos:R:3 gdb_50198=T pbc="F F F"
O       -0.63520000       0.72000000       0.57210000
C        0.08170000       1.11570000      -0.31140000
C        1.30110000       1.98400000      -0.13440000
C        1.30180000       3.34400000      -0.92120000
N        1.43750000       4.08130000       0.37150000
C        1.51430000       2.80500000       1.17330000
C        0.31680000       3.26840000       2.03430000
C        0.20320000       4.41930000       1.01280000
O       -0.61690000       5.23550000       0.71640000
H       -0.11770000       0.84570000      -1.37460000
H        2.16630000       1.36280000      -0.39380000
H        2.16140000       3.48770000      -1.57840000
H        0.38690000       3.59810000      -1.46530000
H        2.45260000       2.61250000       1.69500000
H       -0.55390000       2.61570000       2.07170000
H        0.58890000       3.57630000       3.04700000
