20
Properties=species:S:1:pos:R:3 gdb_87259=T pbc="F F F"
C        0.69970000       1.13100000      -0.36670000
C        0.32480000      -0.22270000       0.17900000
O        1.38200000      -1.07040000       0.65030000
C        0.39640000      -0.61550000       1.59990000
C        0.89170000       0.30420000       2.69240000
C       -0.53920000      -1.71880000       2.06060000
O        0.04080000      -2.52530000       3.08450000
C        0.91510000      -3.47540000       2.67790000
N        1.52240000      -4.16890000       3.53910000
H        1.41900000       1.64730000       0.27070000
H        1.14470000       1.02190000      -1.36110000
H       -0.19290000       1.75790000      -0.46770000
H       -0.40840000      -0.75400000      -0.43390000
H        0.06790000       0.90570000       3.09220000
H        1.30390000      -0.28660000       3.51460000
H        1.67010000       0.97370000       2.32570000
H       -1.44380000      -1.29370000       2.50600000
H       -0.83110000      -2.33900000       1.20430000
H        1.00630000      -3.54720000       1.58790000
H        2.12250000      -4.84620000       3.07280000
