14
Properties=species:S:1:pos:R:3 gdb_53854=T pbc="F F F"
C       -0.00750000       1.44540000       0.00880000
C        0.03790000      -0.06030000       0.00180000
O        1.03860000      -0.72580000      -0.01120000
C       -1.35740000      -0.73410000       0.01160000
O       -2.39540000      -0.12330000       0.02440000
O       -1.26090000      -2.07240000       0.00370000
C       -2.52540000      -2.74860000       0.01200000
C       -2.27460000      -4.18710000       0.00100000
N       -2.12300000      -5.33110000      -0.00730000
H        1.00840000       1.83980000       0.00060000
H       -0.56620000       1.80880000      -0.85980000
H       -0.54910000       1.80120000       0.89110000
H       -3.09770000      -2.46900000       0.90240000
H       -3.11500000      -2.45850000      -0.86360000
