19
Properties=species:S:1:pos:R:3 gdb_60690=T pbc="F F F"
C        0.05700000       1.66170000      -0.02240000
C        0.01700000       0.14540000       0.07580000
C        1.26240000      -0.65660000      -0.27700000
C        0.80250000      -0.52340000       1.16260000
N       -1.27890000      -0.42270000      -0.21570000
C       -1.63170000      -0.52500000      -1.44570000
N       -0.96400000      -0.16670000      -2.58110000
C       -2.98850000      -1.11550000      -1.69120000
O       -3.42230000      -1.33160000      -2.79750000
H        1.04760000       2.04060000       0.24570000
H       -0.17970000       2.00700000      -1.03410000
H       -0.67490000       2.10210000       0.66220000
H        1.12740000      -1.62320000      -0.75050000
H        2.15800000      -0.12520000      -0.58450000
H        1.39050000       0.09340000       1.83390000
H        0.35370000      -1.39770000       1.62050000
H        0.03380000      -0.04210000      -2.53790000
H       -1.35970000      -0.51450000      -3.44240000
H       -3.54040000      -1.34200000      -0.76030000
