21
Properties=species:S:1:pos:R:3 gdb_83371=T pbc="F F F"
O       -0.17230000       1.38930000      -0.04500000
C       -0.03840000      -0.01960000       0.04690000
C        0.38700000      -0.59500000       1.41140000
C       -0.73630000      -0.07100000       2.33850000
C       -1.99970000      -0.12320000       1.42750000
C       -1.44690000      -0.65410000       0.07820000
O       -2.25900000      -0.41810000      -1.04200000
C       -1.09920000      -2.14170000       0.23550000
C        0.16650000      -2.10650000       1.15500000
H        0.70460000       1.77990000      -0.09870000
H        0.56060000      -0.41030000      -0.78770000
H        1.39630000      -0.34860000       1.75040000
H       -0.83150000      -0.68110000       3.24130000
H       -0.52870000       0.95440000       2.65250000
H       -2.78900000      -0.77370000       1.81330000
H       -2.42700000       0.87290000       1.28730000
H       -2.26490000       0.53680000      -1.18000000
H       -1.92760000      -2.70870000       0.66770000
H       -0.88020000      -2.57320000      -0.74500000
H        1.03040000      -2.54880000       0.65000000
H        0.02440000      -2.65580000       2.08960000
