19
Properties=species:S:1:pos:R:3 gdb_119290=T pbc="F F F"
C        0.01520000       1.54890000      -0.05230000
C       -0.06360000       0.03340000      -0.01470000
O        0.72740000      -0.46910000      -1.09240000
C        0.74620000      -1.86130000      -1.23830000
C       -0.54400000      -2.49930000      -1.85860000
N        0.11200000      -2.49330000      -3.18400000
C        1.43800000      -2.24110000      -2.57780000
C        1.26510000      -2.53290000      -0.03640000
N        1.66780000      -3.06530000       0.90760000
H        1.05100000       1.88130000       0.05680000
H       -0.37230000       1.93240000      -1.00010000
H       -0.57470000       1.97580000       0.76400000
H        0.31690000      -0.35620000       0.94000000
H       -1.10480000      -0.30460000      -0.12090000
H       -0.76140000      -3.49060000      -1.44280000
H       -1.44310000      -1.87780000      -1.79770000
H        0.03770000      -3.36320000      -3.69700000
H        1.99420000      -1.41240000      -3.02520000
H        2.08970000      -3.11730000      -2.48280000
