21
Properties=species:S:1:pos:R:3 gdb_41826=T pbc="F F F"
C        0.15380000       1.69990000       0.13410000
O        1.49330000       1.93960000      -0.27510000
C        1.93130000       0.80820000      -1.01890000
C        3.21470000       0.25430000      -0.40940000
C        3.08120000      -0.12270000       1.07290000
C        1.95100000      -1.12140000       1.38220000
C        0.53460000      -0.52160000       1.43430000
C        0.05540000       0.17040000       0.12960000
O        0.87690000      -0.14330000      -0.99610000
H        0.00090000       2.15480000       1.11650000
H       -0.55770000       2.13930000      -0.58040000
H        2.08480000       1.08860000      -2.07110000
H        3.50420000      -0.62270000      -1.00140000
H        4.00660000       1.00210000      -0.53680000
H        4.03460000      -0.55320000       1.39930000
H        2.93630000       0.78910000       1.66440000
H        1.97260000      -1.93440000       0.64760000
H        2.14310000      -1.58150000       2.35870000
H       -0.16670000      -1.32520000       1.68500000
H        0.47780000       0.19770000       2.26090000
H       -0.95570000      -0.16010000      -0.12260000
