17
Properties=species:S:1:pos:R:3 gdb_125026=T pbc="F F F"
C        0.02010000       1.47140000      -0.08670000
C       -0.05220000      -0.01300000      -0.09100000
C       -1.07780000      -0.90820000      -0.00330000
N       -2.45320000      -0.72590000       0.17580000
C       -0.42280000      -2.17690000      -0.05650000
C       -1.08780000      -3.51700000      -0.01170000
O       -2.15890000      -3.59950000      -0.95560000
N        0.87710000      -2.05020000      -0.18030000
O        1.12360000      -0.69080000      -0.18890000
H        0.38040000       1.86150000       0.87260000
H        0.69860000       1.83150000      -0.86640000
H       -0.96860000       1.90200000      -0.26960000
H       -2.78140000       0.18890000      -0.10430000
H       -2.97930000      -1.45130000      -0.29830000
H       -0.34150000      -4.30650000      -0.16240000
H       -1.55720000      -3.67510000       0.96480000
H       -1.77330000      -3.51520000      -1.83450000
