20
Properties=species:S:1:pos:R:3 gdb_8922=T pbc="F F F"
C        0.03920000       1.37800000       0.12020000
O       -0.06840000      -0.01370000      -0.06650000
C        0.65640000      -0.52770000      -1.17620000
C        2.14910000      -0.64400000      -0.86520000
C        0.00410000      -1.89430000      -1.50480000
C       -1.50310000      -1.75180000      -1.79630000
C        0.68370000      -2.55270000      -2.61850000
C        1.21430000      -3.08650000      -3.55650000
H        1.05710000       1.69250000       0.39210000
H       -0.26330000       1.93330000      -0.78140000
H       -0.63380000       1.64450000       0.93920000
H        0.51180000       0.13680000      -2.04490000
H        2.30310000      -1.29290000       0.00310000
H        2.68690000      -1.06590000      -1.71710000
H        2.58330000       0.33450000      -0.64160000
H        0.12370000      -2.51660000      -0.60670000
H       -1.95290000      -2.73200000      -1.97300000
H       -1.99940000      -1.27520000      -0.95000000
H       -1.66460000      -1.14080000      -2.69000000
H        1.68900000      -3.56660000      -4.37600000
