20
Properties=species:S:1:pos:R:3 gdb_18051=T pbc="F F F"
C       -0.01010000       1.59150000      -0.09590000
C        1.53440000       1.51280000       0.06500000
C        1.35910000       0.11110000       0.68630000
O        1.28810000       0.25950000       2.09560000
C        0.45340000      -0.70070000       2.72380000
C       -1.00440000      -0.50600000       2.30850000
C       -1.14640000      -0.69590000       0.79030000
C       -0.04870000       0.03830000       0.02120000
H       -0.47820000       2.08420000       0.75960000
H       -0.40650000       2.03000000      -1.01450000
H        2.04690000       1.46620000      -0.89970000
H        2.02620000       2.24930000       0.70310000
H        2.08250000      -0.67660000       0.42890000
H        0.78800000      -1.72450000       2.47950000
H        0.58520000      -0.55600000       3.80020000
H       -1.64810000      -1.21260000       2.84460000
H       -1.31420000       0.50290000       2.60550000
H       -1.07330000      -1.76890000       0.56640000
H       -2.13680000      -0.37550000       0.44500000
H        0.05730000      -0.39100000      -0.98100000
