19
Properties=species:S:1:pos:R:3 gdb_80995=T pbc="F F F"
C       -0.18500000       1.55130000      -0.06980000
C        0.01840000       0.04450000      -0.00710000
C        1.19800000      -0.57510000      -0.85360000
C        2.14440000      -0.19830000       0.33540000
C        0.87660000      -0.56090000       1.14780000
C        0.67320000      -0.30990000       2.61280000
O        0.75480000      -1.99820000       0.85000000
C        0.96920000      -2.03790000      -0.50790000
O        0.95160000      -3.03460000      -1.16470000
H        0.74390000       2.12020000       0.02060000
H       -0.65050000       1.82850000      -1.02110000
H       -0.85680000       1.87970000       0.73060000
H       -0.94370000      -0.46360000      -0.13060000
H        1.39440000      -0.33630000      -1.89540000
H        3.02920000      -0.81680000       0.50170000
H        2.40620000       0.85880000       0.36570000
H        0.74720000       0.76030000       2.82650000
H       -0.31270000      -0.66140000       2.93130000
H        1.43060000      -0.83400000       3.20310000
