21
Properties=species:S:1:pos:R:3 gdb_38487=T pbc="F F F"
C        0.02650000       1.53680000      -0.05490000
C        1.32030000       0.76090000      -0.04140000
C        2.05970000       0.55400000       1.30230000
C        1.15520000      -0.33950000       2.14630000
C       -0.18810000       0.11890000       2.64460000
C       -0.11860000      -0.64860000       1.35150000
C        0.05400000      -2.15470000       1.61940000
C        1.35130000      -1.83990000       2.44200000
C       -0.02620000       0.03000000       0.00910000
H       -0.25640000       2.12410000       0.81190000
H       -0.26080000       1.99920000      -0.99410000
H        1.91970000       0.77920000      -0.94640000
H        3.01120000       0.04430000       1.11710000
H        2.30460000       1.50790000       1.78400000
H       -0.61840000      -0.35730000       3.52370000
H       -0.40180000       1.17890000       2.58510000
H       -0.76770000      -2.64810000       2.14950000
H        0.26860000      -2.72400000       0.71160000
H        2.24910000      -2.25220000       1.97470000
H        1.35130000      -2.12800000       3.49910000
H       -0.40630000      -0.50330000      -0.85560000
