21
Properties=species:S:1:pos:R:3 gdb_104133=T pbc="F F F"
C       -0.24560000       1.57810000       0.22820000
O       -0.12690000       0.18390000       0.04540000
C        0.69300000      -0.51830000       0.97350000
C        0.16630000      -0.38870000       2.40970000
C        0.68360000      -1.99660000       0.50810000
C        1.99090000      -2.60790000       1.02880000
C        2.96080000      -1.42670000       1.15820000
O        4.12890000      -1.50290000       1.43600000
C        2.18800000      -0.13460000       0.88140000
H        0.73120000       2.08330000       0.23730000
H       -0.82100000       1.95490000      -0.62110000
H       -0.78050000       1.84100000       1.15110000
H       -0.89060000      -0.66850000       2.44920000
H        0.72000000      -1.04720000       3.08670000
H        0.27230000       0.62950000       2.79480000
H       -0.21250000      -2.52160000       0.84790000
H        0.66730000      -1.99170000      -0.58600000
H        1.87750000      -3.05590000       2.02350000
H        2.41580000      -3.38380000       0.38690000
H        2.41430000       0.16770000      -0.14990000
H        2.51890000       0.66750000       1.54490000
