18
Properties=species:S:1:pos:R:3 gdb_119136=T pbc="F F F"
N       -0.13460000       1.62050000       0.68550000
H       -0.16060000       1.86530000      -0.30010000
H        0.83840000       1.46610000       0.92730000
H       -0.97270000       2.85140000       1.49100000
C       -0.94820000       0.41720000       0.94660000
C       -2.43470000       0.77040000       1.09600000
C       -2.78100000       1.46510000       2.41020000
C       -3.76980000       0.85870000       3.31270000
O       -2.37020000       0.73390000       3.58320000
C       -2.59040000       2.98240000       2.57280000
O       -1.56800000       3.53170000       1.92650000
O       -3.33460000       3.63280000       3.26330000
H       -0.82870000      -0.33890000       0.15980000
H       -0.60640000      -0.02750000       1.88510000
H       -2.76570000       1.38670000       0.25060000
H       -3.00450000      -0.16250000       1.04410000
H       -4.31580000       1.50740000       3.99060000
H       -4.26630000      -0.06100000       3.00630000
