17
Properties=species:S:1:pos:R:3 gdb_69796=T pbc="F F F"
C        0.00830000       1.56940000       0.04410000
C        0.16890000       0.08060000       0.02160000
O       -0.76950000      -0.70350000       0.80550000
C        0.62200000      -0.80550000       1.11090000
C        1.29070000      -2.01200000       0.48910000
C        0.44300000      -2.94890000      -0.28830000
N        1.19490000      -1.87340000      -0.98160000
C        0.49140000      -0.65290000      -1.26020000
N        0.22720000      -0.19010000      -2.40750000
H        0.94490000       2.06120000      -0.23470000
H       -0.75300000       1.87050000      -0.68080000
H       -0.29130000       1.90380000       1.04000000
H        0.92760000      -0.44540000       2.08880000
H        2.25520000      -2.31930000       0.88170000
H        0.80600000      -3.94850000      -0.50700000
H       -0.63130000      -2.83670000      -0.19950000
H        0.54730000      -0.83860000      -3.13110000
