17
Properties=species:S:1:pos:R:3 gdb_5562=T pbc="F F F"
C       -0.46820000       1.36730000      -0.13080000
C       -0.08640000      -0.07710000      -0.10800000
C        0.25560000      -0.94140000      -1.13300000
C        0.34220000      -0.60520000      -2.58830000
O       -0.88750000      -0.01450000      -3.02260000
C        0.53600000      -2.21010000      -0.54500000
C        0.36240000      -2.09050000       0.81140000
N       -0.01540000      -0.79350000       1.06190000
H        0.34730000       2.02230000       0.20390000
H       -0.74200000       1.64930000      -1.14840000
H       -1.33240000       1.56800000       0.51410000
H        1.17650000       0.08950000      -2.78150000
H        0.55590000      -1.52420000      -3.15520000
H       -0.76400000       0.27590000      -3.93210000
H        0.82780000      -3.10640000      -1.07220000
H        0.46430000      -2.80620000       1.61090000
H       -0.23800000      -0.42230000       1.96930000
