14
Properties=species:S:1:pos:R:3 gdb_129979=T pbc="F F F"
N       -0.12500000       1.29910000      -0.26500000
C       -0.04730000      -0.04280000      -0.10650000
N       -1.00540000      -0.92140000      -0.24740000
C       -0.32720000      -2.09710000      -0.02520000
C       -0.99360000      -3.43020000      -0.09370000
C       -1.61740000      -3.70520000      -1.46040000
O       -1.65850000      -4.79610000      -1.96170000
N        0.94730000      -1.97700000       0.23560000
O        1.14480000      -0.56820000       0.18580000
H        0.60980000       1.85640000       0.13940000
H       -1.05210000       1.69110000      -0.24340000
H       -0.29950000      -4.23280000       0.15920000
H       -1.82090000      -3.44490000       0.63020000
H       -2.05850000      -2.81310000      -1.95310000
