17
Properties=species:S:1:pos:R:3 gdb_40480=T pbc="F F F"
C        0.38990000       1.54260000       0.24970000
N        1.23270000       0.41310000      -0.17720000
C       -0.18620000       0.17840000       0.14070000
C       -0.46920000      -0.63220000       1.34710000
O        0.14360000      -0.29620000       2.62780000
C       -0.67950000      -1.45590000       2.94070000
C       -1.84000000      -1.05540000       1.97320000
N       -1.85110000      -2.34380000       1.20710000
C       -0.40790000      -2.17860000       1.58280000
H        0.62920000       1.93200000       1.23390000
H        0.08650000       2.28480000      -0.48390000
H        1.35520000       0.43140000      -1.18640000
H       -0.87320000      -0.02210000      -0.67850000
H       -0.69230000      -1.82840000       3.96570000
H       -2.72570000      -0.44740000       2.16150000
H       -2.27950000      -3.08380000       1.76860000
H        0.38130000      -2.87930000       1.31110000
