15
Properties=species:S:1:pos:R:3 gdb_98384=T pbc="F F F"
C       -0.01200000       1.47140000      -0.04360000
N       -0.05760000       0.02430000      -0.19380000
C       -1.19850000      -0.65760000       0.09970000
O       -2.21520000      -0.14370000       0.51150000
N       -1.10950000      -2.07710000      -0.11580000
C       -2.34000000      -2.73870000      -0.40280000
O       -2.46550000      -3.91890000      -0.54450000
C        0.09910000      -2.77480000       0.11110000
O        0.29620000      -3.92830000      -0.13860000
H        1.02490000       1.78560000       0.09260000
H       -0.43430000       1.98930000      -0.91240000
H       -0.59430000       1.74820000       0.83530000
H        0.62070000      -0.40510000      -0.80120000
H       -3.15440000      -2.00270000      -0.47060000
H        0.85230000      -2.11450000       0.57740000
