21
Properties=species:S:1:pos:R:3 gdb_90294=T pbc="F F F"
C       -0.09900000       1.58550000       0.04080000
C        0.03310000       0.05950000       0.04090000
C        0.73240000      -0.50810000      -1.24430000
C        1.49270000      -1.74590000      -0.74350000
C        3.07060000      -1.90500000      -0.72230000
O        3.79340000      -0.73900000      -1.02650000
C        2.96410000      -2.21060000       0.82600000
C        1.62450000      -1.51530000       0.73780000
C        0.91610000      -0.47750000       1.17230000
H        0.88560000       2.06490000      -0.01080000
H       -0.68310000       1.92810000      -0.81990000
H       -0.59910000       1.94470000       0.94670000
H       -0.98010000      -0.36340000       0.11970000
H        0.02360000      -0.71710000      -2.05030000
H        1.44690000       0.23450000      -1.62330000
H        1.02420000      -2.69800000      -1.01800000
H        3.49210000      -2.69600000      -1.34650000
H        3.46630000      -0.03260000      -0.45540000
H        2.88650000      -3.28680000       1.01260000
H        3.73980000      -1.78730000       1.46930000
H        0.97080000      -0.00280000       2.14650000
