19
Properties=species:S:1:pos:R:3 gdb_71931=T pbc="F F F"
C        0.00130000       1.53020000      -0.06290000
C       -0.04890000       0.02340000       0.05310000
O        0.27150000      -0.60700000      -1.24980000
C       -0.95620000      -1.36350000      -1.24510000
C       -0.84320000      -2.74490000      -0.55310000
C       -1.07800000      -2.04770000       0.84600000
C        0.18750000      -1.72810000       1.60220000
C        0.75500000      -0.59940000       1.17310000
C       -1.40660000      -0.72470000       0.08640000
H        1.01590000       1.85580000      -0.31630000
H       -0.67310000       1.88230000      -0.84850000
H       -0.28380000       2.00060000       0.88430000
H       -1.48250000      -1.29810000      -2.20050000
H       -1.67760000      -3.39820000      -0.82630000
H        0.09920000      -3.27880000      -0.68890000
H       -1.86330000      -2.50260000       1.45250000
H        0.60500000      -2.39270000       2.35140000
H        1.69990000      -0.19170000       1.51460000
H       -2.33380000      -0.18400000       0.26770000
