14
Properties=species:S:1:pos:R:3 gdb_127527=T pbc="F F F"
C       -0.02980000       1.40430000      -0.04590000
N       -0.00160000      -0.05270000      -0.02300000
N       -0.02480000      -0.67330000      -1.22430000
C        0.00150000      -1.97090000      -1.19120000
O       -0.02080000      -2.61120000      -2.37280000
N        0.05000000      -2.76240000      -0.07360000
C        0.07200000      -2.14620000       1.06450000
C        0.04800000      -0.68900000       1.20790000
O        0.07080000      -0.07720000       2.26600000
H        0.87000000       1.80040000       0.43260000
H       -0.08420000       1.71520000      -1.08690000
H       -0.89480000       1.76570000       0.51610000
H        0.00340000      -3.55530000      -2.17120000
H        0.11050000      -2.72770000       1.98270000
