16
Properties=species:S:1:pos:R:3 gdb_98790=T pbc="F F F"
C        0.02980000       1.37360000      -0.04490000
O        0.13840000      -0.05750000      -0.01660000
C        0.66330000      -0.61770000      -1.12330000
O        1.04760000      -0.01060000      -2.08520000
C        0.63370000      -2.13170000      -0.97820000
C       -0.75070000      -2.73970000      -1.38320000
N       -0.46600000      -3.52070000      -2.59460000
C        0.78230000      -3.43590000      -2.77840000
O        1.54850000      -2.71910000      -1.91610000
H        1.01740000       1.82990000      -0.14660000
H       -0.59460000       1.69510000      -0.88200000
H       -0.42590000       1.65510000       0.90410000
H        0.93760000      -2.40870000       0.03310000
H       -1.15610000      -3.38950000      -0.60190000
H       -1.49990000      -1.97100000      -1.59430000
H        1.33820000      -3.90290000      -3.58290000
