16
Properties=species:S:1:pos:R:3 gdb_17716=T pbc="F F F"
C       -0.07840000       1.60000000      -0.00350000
C        1.45810000       1.28830000      -0.02740000
C        1.29650000       0.14380000       1.01570000
C        1.76640000      -1.06420000       0.14930000
C        0.59820000      -2.07410000       0.26640000
C       -0.53180000      -1.34920000       0.24470000
C        0.01500000       0.06130000       0.11560000
C        1.23700000      -0.00530000      -0.86510000
H       -0.45590000       2.14340000       0.86870000
H       -0.51260000       2.00130000      -0.92480000
H        2.27730000       2.00220000      -0.10990000
H        1.28560000       0.23440000       2.10490000
H        2.78760000      -1.44890000       0.14750000
H        0.69970000      -3.14780000       0.34840000
H       -1.55950000      -1.67630000       0.30310000
H        1.15710000      -0.08720000      -1.95210000
