17
Properties=species:S:1:pos:R:3 gdb_111741=T pbc="F F F"
C        0.38050000       0.99640000      -0.24770000
O       -0.35210000       0.00770000       0.45820000
C        0.41100000      -0.67730000       1.37920000
C        0.03680000      -2.03680000       1.80650000
O       -0.57160000      -2.80580000       0.79670000
C        0.60150000      -2.69410000      -0.05880000
C        1.33750000      -1.82280000       0.95360000
C        2.75050000      -1.92770000       1.31090000
O        3.54860000      -2.62950000       0.73140000
H        1.22920000       0.55770000      -0.78990000
H       -0.30840000       1.45190000      -0.96120000
H        0.76110000       1.77380000       0.43060000
H        0.85050000      -0.06920000       2.17590000
H       -0.08930000      -2.35270000       2.83710000
H        1.07340000      -3.67010000      -0.19380000
H        0.36230000      -2.24180000      -1.02510000
H        3.05690000      -1.29770000       2.17770000
