13
Properties=species:S:1:pos:R:3 gdb_4290=T pbc="F F F"
O       -0.07560000       1.31310000       0.01010000
C        0.04200000      -0.02610000       0.00260000
N        1.18740000      -0.60000000      -0.00680000
C        1.24950000      -2.01210000      -0.01440000
N        2.35200000      -2.66430000      -0.02390000
C       -0.03180000      -2.72390000      -0.01080000
C       -1.18620000      -2.04350000      -0.00080000
N       -1.16790000      -0.65500000       0.00620000
H        0.83000000       1.65420000       0.00670000
H        3.12720000      -1.99800000      -0.02490000
H       -0.01670000      -3.80500000      -0.01640000
H       -2.16750000      -2.49910000       0.00250000
H       -2.01110000      -0.10650000       0.01390000
