18
Properties=species:S:1:pos:R:3 gdb_97752=T pbc="F F F"
O        0.29900000       0.81410000      -0.87350000
C       -0.06810000       0.19210000       0.35070000
C       -1.37030000      -0.47130000       0.30480000
C       -2.46490000      -0.97530000       0.23910000
C       -3.76340000      -1.58080000       0.18290000
C       -4.38470000      -2.07370000      -1.07750000
C       -3.34680000      -2.59620000      -2.06570000
C       -2.88930000      -3.53890000      -0.92210000
N       -3.97950000      -3.04980000       0.00160000
H       -0.42720000       1.39150000      -1.13130000
H        0.72020000      -0.53980000       0.55910000
H       -0.05940000       0.91110000       1.18550000
H       -4.47180000      -1.19710000       0.91340000
H       -5.42700000      -1.86200000      -1.29820000
H       -3.79180000      -3.13170000      -2.90580000
H       -2.62650000      -1.86630000      -2.44320000
H       -3.05110000      -4.59760000      -1.13010000
H       -1.88120000      -3.39300000      -0.52730000
