18
Properties=species:S:1:pos:R:3 gdb_123482=T pbc="F F F"
C        0.32210000       0.15580000      -0.73600000
C       -0.03600000       1.16630000       0.29930000
N        0.78140000       0.01070000       0.63830000
C        0.21820000      -1.05500000       1.48770000
C       -1.23000000      -1.42310000       1.31800000
C       -2.32590000      -0.91670000       1.99510000
N       -3.41580000      -1.55470000       1.50710000
N       -3.12000000      -2.45460000       0.55030000
C       -1.79830000      -2.37580000       0.43500000
H       -0.48510000      -0.48310000      -1.08810000
H        1.09870000       0.36010000      -1.46830000
H        0.47140000       2.12640000       0.34110000
H       -1.07610000       1.18110000       0.61970000
H        0.83640000      -1.94260000       1.31310000
H        0.39820000      -0.74680000       2.52360000
H       -2.40200000      -0.17870000       2.77880000
H       -4.37610000      -1.43550000       1.78210000
H       -1.28450000      -3.01310000      -0.27100000
