13
Properties=species:S:1:pos:R:3 gdb_23707=T pbc="F F F"
C        0.01250000       1.50170000       0.00160000
C        0.01050000      -0.00150000       0.01390000
N        0.16630000      -0.63500000      -1.16090000
C        0.16470000      -1.96110000      -1.15150000
C        0.00560000      -2.66050000       0.04610000
F        0.00790000      -3.98800000       0.02670000
N       -0.14840000      -2.07540000       1.20740000
C       -0.14560000      -0.73760000       1.18860000
H        0.95470000       1.88080000      -0.40650000
H       -0.79050000       1.88120000      -0.63810000
H       -0.12070000       1.91010000       1.00620000
H        0.28950000      -2.48850000      -2.09260000
H       -0.27250000      -0.23920000       2.14590000
