23
Properties=species:S:1:pos:R:3 gdb_122157=T pbc="F F F"
C        0.00630000       1.45440000      -0.18740000
C        0.09370000      -0.04180000       0.01390000
C        1.44220000      -0.74400000      -0.00090000
C        0.64880000      -0.63090000       1.28180000
O        1.08520000       0.31130000       2.23120000
C        0.00590000      -1.86620000       1.88550000
C        0.96500000      -2.67750000       2.76490000
C        0.32000000      -3.92410000       3.35440000
O        1.28870000      -4.57950000       4.15970000
H        0.80850000       1.96500000       0.34920000
H        0.07930000       1.71070000      -1.24990000
H       -0.94480000       1.84800000       0.18760000
H       -0.72560000      -0.60490000      -0.42730000
H        1.53040000      -1.71140000      -0.48470000
H        2.31950000      -0.11090000      -0.09020000
H        1.91020000      -0.00950000       2.60950000
H       -0.86250000      -1.55220000       2.47960000
H       -0.37610000      -2.49790000       1.07380000
H        1.84530000      -2.98080000       2.18470000
H        1.32650000      -2.05870000       3.59500000
H       -0.56500000      -3.63920000       3.94680000
H       -0.03200000      -4.58050000       2.54120000
H        0.88250000      -5.36330000       4.54060000
