17
Properties=species:S:1:pos:R:3 gdb_26689=T pbc="F F F"
C       -0.03220000       1.55980000       0.10840000
C        0.03500000       0.07720000      -0.00710000
C        0.07080000      -0.75000000      -1.09770000
O        0.05350000      -0.37920000      -2.40710000
C        0.13080000      -2.11410000      -0.66180000
N        0.17870000      -3.21050000      -1.56800000
C        0.12920000      -2.06900000       0.71600000
O        0.17330000      -3.04440000       1.66060000
N        0.07170000      -0.77150000       1.11140000
H        0.83250000       1.98560000       0.63620000
H       -0.04880000       1.99230000      -0.89490000
H       -0.93450000       1.90600000       0.63120000
H        0.09050000      -1.20890000      -2.90420000
H       -0.61950000      -3.83310000      -1.51020000
H        1.02840000      -3.76060000      -1.51080000
H        0.21130000      -3.88940000       1.19980000
H        0.06310000      -0.47390000       2.07070000
