21
Properties=species:S:1:pos:R:3 gdb_106829=T pbc="F F F"
C       -0.55450000       1.30460000       0.32370000
C       -0.02810000      -0.12010000       0.10010000
C        0.94490000      -0.56680000       1.15530000
C        0.52810000      -1.09910000       2.52290000
C        1.38590000      -1.93650000       1.61820000
C        1.12170000      -3.34190000       1.15270000
O       -0.26200000      -3.64810000       1.11130000
O        2.75820000      -1.54250000       1.74500000
C        2.43150000      -0.22120000       1.22770000
H        0.26120000       2.03590000       0.31960000
H       -1.26160000       1.59100000      -0.46080000
H       -1.06670000       1.38590000       1.28790000
H       -0.86420000      -0.82840000       0.07360000
H        0.45320000      -0.18220000      -0.88500000
H        0.95180000      -0.69690000       3.43990000
H       -0.52080000      -1.37580000       2.57720000
H        1.49700000      -3.47460000       0.13260000
H        1.68270000      -4.03910000       1.79590000
H       -0.57790000      -3.68230000       2.01990000
H        2.89160000      -0.07170000       0.24320000
H        2.74700000       0.57860000       1.90840000
