23
Properties=species:S:1:pos:R:3 gdb_95160=T pbc="F F F"
C        0.07460000       1.53970000       0.09660000
C        0.01110000       0.02110000       0.03420000
C        0.60910000      -0.54820000      -1.26190000
C        0.92240000      -2.04690000      -1.17730000
C        0.50390000      -2.86030000      -2.38570000
C        2.19330000      -2.45260000      -0.46210000
C        0.85760000      -2.70020000       0.18990000
C        0.44850000      -1.85740000       1.38050000
O        0.70190000      -0.48010000       1.17480000
H        1.11670000       1.87440000       0.08290000
H       -0.44210000       1.98280000      -0.76040000
H       -0.39150000       1.90730000       1.01460000
H       -1.04320000      -0.30180000       0.10270000
H       -0.10250000      -0.36820000      -2.07640000
H        1.51860000       0.01120000      -1.51550000
H        0.98590000      -2.48720000      -3.29770000
H        0.77910000      -3.91390000      -2.27190000
H       -0.58050000      -2.81330000      -2.54270000
H        2.74740000      -3.30440000      -0.84290000
H        2.80760000      -1.66060000      -0.04500000
H        0.50400000      -3.72750000       0.22730000
H       -0.62370000      -2.01180000       1.59540000
H        1.01260000      -2.14020000       2.27630000
