21
Properties=species:S:1:pos:R:3 gdb_89507=T pbc="F F F"
C        0.00080000       1.57650000       0.15360000
C       -0.00640000       0.06100000       0.03190000
C        1.03000000      -0.65230000      -0.92810000
C        1.20530000      -1.77490000       0.15930000
O        0.31720000      -2.86590000      -0.06370000
C        2.53780000      -2.19120000       0.81920000
C        2.32070000      -1.84180000       2.32760000
C        1.25900000      -0.74330000       2.28870000
C        0.62210000      -0.77890000       1.12370000
H        1.00390000       1.94350000       0.39610000
H       -0.31830000       2.04860000      -0.78190000
H       -0.67900000       1.91240000       0.94410000
H       -1.01090000      -0.30170000      -0.21260000
H        0.65250000      -0.97640000      -1.90240000
H        1.93260000      -0.04880000      -1.05880000
H        0.63400000      -3.34080000      -0.83980000
H        2.76870000      -3.24760000       0.65380000
H        3.36880000      -1.59710000       0.42480000
H        1.99130000      -2.71520000       2.90590000
H        3.24440000      -1.48960000       2.79960000
H        1.14000000      -0.01440000       3.08290000
