19
Properties=species:S:1:pos:R:3 gdb_103479=T pbc="F F F"
C        0.31330000       1.07800000       0.36930000
O       -0.25110000      -0.06200000      -0.25780000
C        0.53430000      -0.60540000      -1.27700000
C        0.40110000       0.07090000      -2.62610000
C        1.89700000      -1.20120000      -0.96590000
O        1.94870000      -1.68660000       0.37390000
C        0.85570000      -2.61090000       0.12450000
C        0.69470000      -2.09580000      -1.30490000
O        0.30300000      -2.84300000      -2.39340000
H        1.28870000       0.84220000       0.81110000
H        0.42520000       1.92150000      -0.32640000
H       -0.37870000       1.37330000       1.16160000
H        0.68240000       1.12640000      -2.55920000
H        1.03840000      -0.40700000      -3.37390000
H       -0.63290000       0.00910000      -2.97700000
H        2.82900000      -0.93940000      -1.45560000
H        1.21280000      -3.64760000       0.17180000
H        0.01480000      -2.46130000       0.80670000
H        0.90230000      -3.59270000      -2.48400000
