13
Properties=species:S:1:pos:R:3 gdb_131134=T pbc="F F F"
O        0.24830000       1.58220000       0.00570000
C        0.07430000       0.20970000       0.11770000
C        0.56350000      -0.50770000      -1.14560000
O        1.00720000       0.12080000      -2.07170000
C        0.77740000      -0.38400000       1.31200000
N        1.66410000       0.25410000       2.02720000
O        2.03170000      -0.69550000       2.99310000
C        1.32190000      -1.79020000       2.73230000
N        0.52710000      -1.68110000       1.71580000
H        0.69170000       1.72400000      -0.84660000
H       -0.99370000      -0.05320000       0.22260000
H        0.48220000      -1.60990000      -1.14920000
H        1.47040000      -2.64260000       3.37900000
