16
Properties=species:S:1:pos:R:3 gdb_72216=T pbc="F F F"
O       -0.11460000       1.41830000      -0.02890000
C        0.02400000       0.04740000      -0.05570000
C        0.77480000      -0.73600000      -1.13290000
C       -0.29970000      -1.86130000      -0.98310000
O        0.20270000      -3.06650000      -0.38910000
C        0.70890000      -2.90530000       0.85770000
N        0.61170000      -1.89520000       1.61850000
C       -0.22070000      -0.81750000       1.17110000
C       -1.11180000      -0.96980000      -0.03970000
H        0.62900000       1.79130000       0.45800000
H        0.70630000      -0.24250000      -2.10540000
H        1.81140000      -1.02600000      -0.93740000
H       -0.78780000      -2.17120000      -1.90470000
H        1.24670000      -3.79730000       1.17120000
H       -0.65520000      -0.24610000       1.98500000
H       -2.18620000      -0.84950000      -0.02030000
