13
Properties=species:S:1:pos:R:3 gdb_5655=T pbc="F F F"
N       -0.02320000       1.38020000       0.01020000
C        1.29190000       1.81420000      -0.00040000
C        2.15210000       0.73150000      -0.01480000
C        1.29850000      -0.39570000      -0.01260000
C       -0.02240000       0.00790000       0.00260000
C       -0.82400000      -1.17420000       0.00390000
C        0.08250000      -2.19560000      -0.01070000
O        1.38320000      -1.75280000      -0.02100000
H       -0.82620000       1.98220000       0.02150000
H        1.51600000       2.86890000       0.00320000
H        3.22850000       0.77440000      -0.02520000
H       -1.89680000      -1.28190000       0.01390000
H       -0.03610000      -3.26640000      -0.01540000
