11
Properties=species:S:1:pos:R:3 gdb_21425=T pbc="F F F"
N       -0.05250000       1.28780000       0.32850000
C       -0.01890000       0.05790000       0.01810000
N        1.11400000      -0.69750000      -0.29560000
N        1.19820000      -2.01500000      -0.63340000
N        0.14950000      -2.69460000      -0.68690000
N       -1.03910000      -2.07400000      -0.40080000
C       -1.28220000      -0.75480000      -0.04490000
O       -2.39150000      -0.34520000       0.17990000
H        0.87740000       1.71250000       0.33160000
H        2.01990000      -0.25020000      -0.28420000
H       -1.83940000      -2.68840000      -0.46550000
