22
Properties=species:S:1:pos:R:3 gdb_22085=T pbc="F F F"
C        0.44890000       1.31410000       0.25630000
C       -0.06470000      -0.11340000      -0.00460000
C       -1.59370000      -0.10880000      -0.08440000
C        0.58730000      -0.69820000      -1.28860000
C        1.99070000      -1.17950000      -0.86490000
C        1.86490000      -1.41640000       0.62550000
C        0.46780000      -1.07680000       1.08850000
N        2.76750000      -1.80090000       1.43520000
O        3.97920000      -2.04960000       0.75660000
H        1.53970000       1.34640000       0.34540000
H        0.15900000       1.98830000      -0.55690000
H        0.03210000       1.71390000       1.18720000
H       -1.94340000       0.53580000      -0.89870000
H       -1.98450000      -1.11630000      -0.26410000
H       -2.03910000       0.26330000       0.84500000
H       -0.00750000      -1.55070000      -1.63710000
H        0.61470000       0.02850000      -2.10610000
H        2.32040000      -2.08300000      -1.38670000
H        2.76870000      -0.42950000      -1.04710000
H        0.44890000      -0.65990000       2.09850000
H       -0.14420000      -1.98970000       1.10100000
H        4.56210000      -2.31160000       1.47670000
