18
Properties=species:S:1:pos:R:3 gdb_78825=T pbc="F F F"
C        0.00660000       1.53980000       0.07630000
N        0.11120000       0.09030000      -0.01440000
C        0.77260000      -0.52280000      -1.16010000
C        2.29460000      -0.64690000      -0.87210000
C        1.29510000      -1.65880000      -0.34780000
C        1.07410000      -0.64610000       0.83900000
C        2.51250000      -0.06100000       0.53060000
C        3.55350000      -0.72860000       1.28720000
C        4.40510000      -1.27940000       1.93430000
H        0.93800000       2.08710000      -0.13650000
H       -0.75150000       1.88260000      -0.63570000
H       -0.33270000       1.81140000       1.08140000
H        0.36760000      -0.50530000      -2.16470000
H        3.03350000      -0.77870000      -1.65170000
H        1.20410000      -2.73010000      -0.43760000
H        0.78390000      -0.85920000       1.86610000
H        2.62470000       1.02540000       0.61990000
H        5.16390000      -1.76070000       2.49960000
