17
Properties=species:S:1:pos:R:3 gdb_35342=T pbc="F F F"
C       -0.61910000      -1.25340000      -0.37140000
C       -0.31360000      -0.10990000      -0.15870000
C        0.00440000       1.28720000       0.04840000
O       -0.00790000       1.70180000       1.48820000
C        1.41950000       1.81190000       1.38220000
C        2.71510000       2.66740000       1.46990000
C        2.91460000       1.51530000       0.35860000
C        2.30760000       0.53050000       1.37280000
C        1.46320000       1.89620000      -0.12020000
H       -0.87620000      -2.26810000      -0.55160000
H       -0.71000000       1.91190000      -0.49460000
H        2.65170000       3.69250000       1.09970000
H        3.35140000       2.58230000       2.35560000
H        3.81720000       1.38110000      -0.23840000
H        2.88930000       0.33540000       2.27590000
H        1.86070000      -0.37620000       0.97020000
H        1.37560000       2.89610000      -0.54790000
