17
Properties=species:S:1:pos:R:3 gdb_23295=T pbc="F F F"
O       -0.10630000       1.36020000       0.00670000
N        0.05100000      -0.04400000      -0.04790000
C       -1.07060000      -0.62280000      -0.12650000
C       -2.56050000      -0.33370000      -0.01270000
C       -3.11990000      -0.92260000      -1.32010000
C       -2.27810000      -2.24980000      -1.36280000
O       -1.44120000      -2.39780000      -2.48610000
C       -1.50500000      -2.07180000      -0.03440000
N       -2.63090000      -1.58220000       0.86710000
H        0.80630000       1.66000000       0.07980000
H       -2.95900000       0.60110000       0.37350000
H       -4.19380000      -1.10330000      -1.24400000
H       -2.91850000      -0.30160000      -2.19620000
H       -2.90910000      -3.13930000      -1.33380000
H       -0.80200000      -1.67470000      -2.48130000
H       -0.86290000      -2.88110000       0.30580000
H       -2.21340000      -1.34630000       1.76880000
