18
Properties=species:S:1:pos:R:3 gdb_110238=T pbc="F F F"
C        0.29280000       0.95300000       0.48150000
O       -0.39590000      -0.00690000      -0.30460000
C        0.38210000      -0.55210000      -1.30240000
C        1.49360000      -1.58140000      -1.03880000
C        0.99950000      -2.52270000       0.00690000
N        1.47670000      -2.99910000       1.06290000
O       -0.21760000      -2.77020000      -0.62150000
C        0.18390000      -1.95070000      -1.75430000
C       -0.15240000      -2.46400000      -3.11290000
H        1.16240000       0.50690000       0.98110000
H        0.62970000       1.80490000      -0.12740000
H       -0.41340000       1.31010000       1.23340000
H        0.65790000       0.13980000      -2.10420000
H        2.51180000      -1.47250000      -1.38430000
H        0.82220000      -3.65060000       1.49960000
H       -1.23890000      -2.50300000      -3.24590000
H        0.26130000      -1.80540000      -3.88150000
H        0.24880000      -3.47100000      -3.25890000
