17
Properties=species:S:1:pos:R:3 gdb_122782=T pbc="F F F"
O       -0.24010000       1.44960000       0.01200000
C       -0.03630000       0.04760000       0.00280000
C       -1.41150000      -0.61100000       0.01220000
C       -1.31380000      -2.12600000       0.00320000
O       -2.66200000      -2.64040000       0.01330000
C       -2.78570000      -3.96840000       0.00730000
N       -1.80770000      -4.77640000      -0.00690000
C       -4.18480000      -4.36430000       0.01800000
N       -5.27460000      -4.74870000       0.02620000
H        0.61960000       1.88030000       0.00660000
H        0.52530000      -0.27050000      -0.89100000
H        0.54180000      -0.27980000       0.88270000
H       -1.95990000      -0.28020000       0.90030000
H       -1.97640000      -0.27070000      -0.86170000
H       -0.80040000      -2.50670000      -0.88630000
H       -0.78360000      -2.51610000       0.87860000
H       -2.12230000      -5.74370000      -0.00950000
