21
Properties=species:S:1:pos:R:3 gdb_72475=T pbc="F F F"
O       -0.03930000       1.38940000      -0.06590000
C        0.02460000      -0.02540000      -0.00350000
C        0.65110000      -0.57280000       1.30620000
C        0.03490000      -1.99260000       1.45350000
C       -1.05570000      -2.09630000       0.34360000
C       -1.38870000      -0.62070000       0.05580000
C       -0.50340000      -2.75080000      -0.94010000
C        0.50120000      -1.85780000      -1.62660000
C        0.74270000      -0.61720000      -1.20590000
H        0.86180000       1.72970000      -0.05700000
H        1.74470000      -0.58610000       1.27210000
H        0.34940000       0.08430000       2.12900000
H        0.78450000      -2.78210000       1.34740000
H       -0.41310000      -2.11420000       2.44380000
H       -1.92460000      -2.66180000       0.69070000
H       -1.94690000      -0.16270000       0.87930000
H       -1.94610000      -0.46610000      -0.87170000
H       -0.04190000      -3.71830000      -0.69870000
H       -1.32430000      -2.98280000      -1.63500000
H        1.02390000      -2.25870000      -2.49190000
H        1.47380000       0.01670000      -1.70370000
