19
Properties=species:S:1:pos:R:3 gdb_39657=T pbc="F F F"
C       -0.17170000       0.91640000       0.04290000
C        1.29520000       1.18590000      -0.34380000
C        1.62870000       0.22970000       0.83040000
O        0.23130000       0.12960000       1.18660000
C        2.31340000      -1.07660000       0.47630000
C        1.90220000      -2.48730000       0.86320000
C        0.40820000      -2.71770000       0.62960000
O        0.49320000      -2.17180000      -0.71960000
C        1.91090000      -2.04930000      -0.58950000
H       -0.76590000       1.78720000       0.34170000
H       -0.73370000       0.31190000      -0.67640000
H        1.60070000       0.83560000      -1.33040000
H        1.62820000       2.21510000      -0.20150000
H        2.18860000       0.69830000       1.65120000
H        3.39900000      -0.97820000       0.51650000
H        2.55940000      -3.15890000       1.39950000
H        0.16040000      -3.78410000       0.58010000
H       -0.30260000      -2.17560000       1.25210000
H        2.51920000      -2.33530000      -1.44150000
