19
Properties=species:S:1:pos:R:3 gdb_108928=T pbc="F F F"
C        0.13730000       1.43990000       0.01310000
N       -0.13020000       0.02330000      -0.17840000
C        0.55830000      -0.72180000      -1.08810000
N        0.71390000      -1.99470000      -1.06920000
C        1.39600000      -2.33470000      -2.30040000
C        2.37250000      -3.47830000      -2.23430000
C        0.63330000      -2.00360000      -3.57450000
C        1.61220000      -1.01000000      -3.00640000
O        1.07710000      -0.01870000      -2.14080000
H        1.09850000       1.63980000       0.50770000
H        0.14070000       1.94020000      -0.95620000
H       -0.66280000       1.86930000       0.62060000
H       -0.37050000      -0.51050000       0.64290000
H        1.84980000      -4.41210000      -2.00320000
H        2.89430000      -3.60800000      -3.18730000
H        3.11750000      -3.30760000      -1.45060000
H        0.94630000      -2.50260000      -4.48640000
H       -0.42830000      -1.79020000      -3.50340000
H        2.49530000      -0.67230000      -3.53370000
