16
Properties=species:S:1:pos:R:3 gdb_45288=T pbc="F F F"
O       -0.05340000       0.01930000       0.13390000
C        0.01500000       1.20870000       0.00220000
N       -0.95650000       2.20900000      -0.05330000
C       -0.05930000       3.34760000      -0.22990000
C        0.41350000       4.08580000       1.06090000
C        1.54250000       3.04040000       1.22980000
C        2.83880000       3.22930000       0.39670000
O        2.36050000       2.34200000      -0.66000000
C        1.09940000       2.28860000      -0.05940000
H       -1.89460000       2.18250000       0.32120000
H       -0.22270000       3.91940000      -1.14380000
H        0.75940000       5.10840000       0.88630000
H       -0.32210000       4.10010000       1.86880000
H        1.66740000       2.53370000       2.18540000
H        3.01390000       4.24400000       0.02050000
H        3.75510000       2.83800000       0.84730000
