16
Properties=species:S:1:pos:R:3 gdb_44276=T pbc="F F F"
O       -0.01420000      -0.02360000      -0.36690000
C       -0.06020000       1.13110000      -0.03840000
C       -1.36100000       1.86530000       0.21110000
C       -1.14060000       3.30420000       0.61370000
C        0.00980000       3.72090000       1.48920000
C       -0.03500000       4.13750000       0.02460000
C        1.25430000       3.29570000      -0.23120000
C        1.29760000       2.89100000       1.19090000
N        1.15120000       1.87220000       0.13610000
H       -1.96450000       1.79660000      -0.70150000
H       -1.91220000       1.31710000       0.98400000
H       -2.04910000       3.87090000       0.80280000
H       -0.10470000       4.33460000       2.37230000
H       -0.18930000       5.12190000      -0.39550000
H        2.04630000       3.56980000      -0.91680000
H        2.13120000       2.77600000       1.87230000
