13
Properties=species:S:1:pos:R:3 gdb_123527=T pbc="F F F"
C        0.06850000       1.29760000       0.00880000
N        1.30670000       1.78430000      -0.00050000
N        2.04180000       0.64450000      -0.01390000
C        3.39670000       0.52950000      -0.02760000
N        3.98490000      -0.62880000      -0.03970000
C        3.19900000      -1.74740000      -0.03820000
C        1.82820000      -1.72650000      -0.02490000
C        1.20100000      -0.46470000      -0.01190000
N       -0.06190000      -0.05090000       0.00260000
H       -0.78210000       1.96400000       0.02070000
H        3.95540000       1.45920000      -0.02790000
H        3.73680000      -2.68970000      -0.04860000
H        1.23180000      -2.62930000      -0.02410000
