18
Properties=species:S:1:pos:R:3 gdb_131819=T pbc="F F F"
O       -0.10250000       1.45360000      -0.10570000
C       -0.01760000       0.05530000       0.10560000
C       -1.42300000      -0.51520000      -0.04060000
C       -1.44950000      -2.03430000       0.14300000
N       -2.79410000      -2.57820000       0.05820000
C       -3.36530000      -3.31780000      -0.91420000
N       -4.62430000      -3.58560000      -0.61770000
C       -4.77690000      -2.96480000       0.58290000
N       -3.70110000      -2.34060000       1.03690000
H        0.77440000       1.83120000       0.00890000
H        0.65910000      -0.41960000      -0.62520000
H        0.37550000      -0.17680000       1.10910000
H       -2.08090000      -0.05260000       0.70080000
H       -1.81390000      -0.25380000      -1.03000000
H       -0.85210000      -2.53460000      -0.62570000
H       -1.03880000      -2.31280000       1.11870000
H       -2.83210000      -3.63340000      -1.79870000
H       -5.70180000      -2.97540000       1.14020000
