15
Properties=species:S:1:pos:R:3 gdb_124146=T pbc="F F F"
C       -0.07760000       1.44270000       0.01750000
C        0.00490000      -0.00770000       0.00020000
C        0.08620000      -1.21070000      -0.01630000
C        0.15720000      -2.62080000      -0.03360000
N        1.25010000      -3.38020000      -0.07340000
C        0.74270000      -4.64260000      -0.07550000
N        1.55620000      -5.75290000      -0.17200000
N       -0.58510000      -4.72620000      -0.03300000
N       -0.93760000      -3.41430000      -0.01140000
H        0.92190000       1.88920000      -0.01500000
H       -0.64030000       1.81870000      -0.84410000
H       -0.57540000       1.80180000       0.92510000
H        2.48510000      -5.59290000       0.18890000
H        1.13430000      -6.59880000       0.18240000
H       -1.90720000      -3.14790000       0.02100000
