18
Properties=species:S:1:pos:R:3 gdb_40504=T pbc="F F F"
C       -0.37950000       1.26080000      -0.30430000
O        0.71420000       1.43630000       0.59610000
C        0.29910000       0.10060000       0.29130000
C       -0.30860000      -0.67420000       1.39630000
C       -1.05530000      -0.12870000       2.60230000
C       -0.68820000      -1.48050000       3.24040000
C       -1.46950000      -2.55450000       2.45740000
C       -0.55760000      -2.15080000       1.31340000
N        0.50690000      -1.62890000       2.23870000
H       -1.35220000       1.56830000       0.07730000
H       -0.18350000       1.52470000      -1.34250000
H        1.00500000      -0.45730000      -0.32520000
H       -0.49500000       0.69800000       3.04340000
H       -2.11460000       0.13570000       2.51450000
H       -0.50130000      -1.57370000       4.30800000
H       -1.22750000      -3.56130000       2.80690000
H       -2.55430000      -2.44400000       2.35540000
H       -0.29720000      -2.72570000       0.43090000
