21
Properties=species:S:1:pos:R:3 gdb_89007=T pbc="F F F"
O       -0.15880000       1.45970000       0.29850000
C       -0.05540000       0.07160000       0.15690000
C       -0.69040000      -0.82980000       1.18710000
C       -1.31480000      -0.66680000      -0.18990000
C       -2.62730000       0.06950000      -0.37190000
C       -3.84820000      -0.82080000      -0.16760000
C       -4.27240000      -1.19820000       1.27150000
O       -5.60580000      -0.69110000       1.05980000
C       -5.24470000      -0.16200000      -0.23230000
H        0.41230000       1.72740000       1.02580000
H        0.86890000      -0.26770000      -0.31100000
H       -0.20410000      -1.76450000       1.44470000
H       -1.18910000      -0.33340000       2.01320000
H       -1.18080000      -1.50890000      -0.86530000
H       -2.66660000       0.92440000       0.31140000
H       -2.66290000       0.49110000      -1.38600000
H       -3.78440000      -1.70120000      -0.81480000
H       -4.27370000      -2.26360000       1.52940000
H       -3.74690000      -0.64320000       2.06100000
H       -5.22630000       0.93750000      -0.23440000
H       -5.92240000      -0.50600000      -1.02260000
