17
Properties=species:S:1:pos:R:3 gdb_3982=T pbc="F F F"
C       -0.07330000       1.52330000      -0.02030000
C       -0.01650000       0.01830000      -0.03190000
C        0.02320000      -0.74730000       1.26410000
C        1.35470000      -0.54080000       2.03140000
C        1.37230000      -1.23350000       3.31310000
C        1.35800000      -1.81450000       4.36520000
N        0.00380000      -0.68460000      -1.10010000
O       -0.02180000       0.12170000      -2.25020000
H        0.84770000       1.95070000      -0.43160000
H       -0.88820000       1.87360000      -0.66070000
H       -0.21870000       1.91080000       0.99020000
H       -0.80400000      -0.42440000       1.90780000
H       -0.11210000      -1.81040000       1.05440000
H        2.18290000      -0.89500000       1.40570000
H        1.52900000       0.53030000       2.19420000
H        1.35940000      -2.32440000       5.29640000
H       -0.03050000      -0.53400000      -2.95530000
