19
Properties=species:S:1:pos:R:3 gdb_114273=T pbc="F F F"
O       -0.22040000       1.61560000       0.13390000
C        0.04470000       0.21920000       0.24820000
C       -1.27140000      -0.49900000       0.02160000
C       -1.81760000      -0.56360000      -1.47280000
C       -1.44210000      -2.04820000      -1.42870000
C       -1.51210000      -3.59410000      -1.50400000
C       -0.38220000      -3.13000000      -0.48870000
O        0.05800000      -2.16480000      -1.49020000
C       -1.36120000      -2.07770000       0.10090000
H        0.62290000       2.07630000       0.10520000
H        0.78770000      -0.11250000      -0.48350000
H        0.42070000      -0.03190000       1.25420000
H       -2.00840000      -0.05790000       0.69810000
H       -2.89420000      -0.38500000      -1.52070000
H       -1.30640000       0.03890000      -2.22660000
H       -2.41040000      -4.07060000      -1.10320000
H       -1.13570000      -4.07550000      -2.40840000
H        0.38180000      -3.75700000      -0.01910000
H       -2.21490000      -2.45200000       0.66850000
