18
Properties=species:S:1:pos:R:3 gdb_12840=T pbc="F F F"
C       -0.22230000       1.52550000       0.03620000
C        0.07010000       0.03510000      -0.03430000
C       -1.09580000      -0.88700000       0.40990000
O       -0.39860000      -1.30300000       1.60230000
C        0.80670000      -0.61150000       1.17570000
C        1.83900000      -1.50940000       0.55440000
C        1.83800000      -1.41340000      -0.77600000
C        0.83070000      -0.41600000      -1.30120000
H        0.70070000       2.11120000      -0.03900000
H       -0.88130000       1.83780000      -0.78240000
H       -0.71280000       1.78880000       0.97910000
H       -2.04050000      -0.38300000       0.64860000
H       -1.29990000      -1.72990000      -0.26390000
H        1.18680000       0.03030000       1.97980000
H        2.47970000      -2.15960000       1.13930000
H        2.48920000      -1.97440000      -1.43900000
H        0.16230000      -0.85870000      -2.05150000
H        1.32750000       0.42820000      -1.79920000
