20
Properties=species:S:1:pos:R:3 gdb_114266=T pbc="F F F"
C       -0.06210000       1.63250000      -0.04680000
C        0.11520000       0.11970000       0.13510000
C       -1.22170000      -0.59630000       0.16790000
O       -1.97370000      -0.51000000      -1.13280000
C       -1.83940000      -1.94050000      -1.20640000
C       -2.40770000      -3.40070000      -1.23750000
N       -1.03230000      -3.51840000      -0.50090000
C       -0.50060000      -2.60000000      -1.59940000
C       -1.51380000      -2.15930000       0.21540000
H        0.90700000       2.13880000      -0.07760000
H       -0.59100000       1.84390000      -0.98020000
H       -0.64210000       2.06620000       0.77510000
H        0.74700000      -0.26900000      -0.66660000
H        0.62910000      -0.09370000       1.08100000
H       -1.84950000      -0.14920000       0.94760000
H       -3.26870000      -3.62190000      -0.60470000
H       -2.41770000      -3.96530000      -2.17400000
H       -0.42990000      -3.08290000      -2.57680000
H        0.43420000      -2.11260000      -1.32980000
H       -2.30160000      -2.39070000       0.93120000
