17
Properties=species:S:1:pos:R:3 gdb_62002=T pbc="F F F"
N       -0.00250000       1.31520000       0.22460000
C        0.02100000       0.02040000      -0.20170000
O        1.00050000      -0.47900000      -0.72080000
C       -1.28510000      -0.74810000       0.00350000
C       -1.03740000      -2.24990000       0.15470000
C       -2.32150000      -3.06680000      -0.06480000
O       -2.89430000      -2.86410000      -1.34520000
C       -2.07070000      -4.50280000       0.18160000
N       -1.85810000      -5.62570000       0.35200000
H        0.79900000       1.89390000       0.03240000
H       -0.83170000       1.74570000       0.59370000
H       -1.84010000      -0.34930000       0.86060000
H       -1.90840000      -0.57820000      -0.88300000
H       -0.27760000      -2.55560000      -0.57180000
H       -0.63130000      -2.48030000       1.14540000
H       -3.09280000      -2.74230000       0.64370000
H       -2.26740000      -3.17980000      -2.00730000
