20
Properties=species:S:1:pos:R:3 gdb_8438=T pbc="F F F"
C       -0.11870000       1.57390000       0.07410000
C        0.01120000       0.07840000       0.02580000
C       -0.81980000      -0.85080000       0.89730000
C        0.67400000      -0.92360000       0.94070000
O        1.16550000      -1.72000000      -0.13610000
C        0.66280000      -0.74090000      -1.11360000
C       -0.23330000      -1.38740000      -2.15930000
C        1.85670000      -0.03840000      -1.74940000
H        0.79810000       2.07630000      -0.25060000
H       -0.93710000       1.92480000      -0.56670000
H       -0.33800000       1.91160000       1.09200000
H       -1.29400000      -0.35200000       1.73810000
H       -1.38180000      -1.68470000       0.48740000
H        1.29320000      -0.82300000       1.82550000
H       -1.09180000      -1.88560000      -1.70430000
H       -0.60290000      -0.63390000      -2.86310000
H        0.32960000      -2.13460000      -2.72840000
H        2.44470000      -0.76060000      -2.32380000
H        1.53370000       0.75790000      -2.42870000
H        2.50450000       0.39680000      -0.98380000
