18
Properties=species:S:1:pos:R:3 gdb_122780=T pbc="F F F"
O       -0.20680000       1.37660000       0.41060000
C       -0.02850000       0.01990000       0.03760000
C       -1.40090000      -0.64160000       0.03020000
C       -1.33800000      -2.10590000      -0.41590000
N       -2.64410000      -2.74230000      -0.42740000
C       -2.97700000      -3.76210000       0.41580000
O       -2.21710000      -4.26320000       1.22510000
C       -4.35520000      -4.21380000       0.25530000
C       -5.48570000      -4.60850000       0.14770000
H        0.65860000       1.79310000       0.45590000
H        0.43130000      -0.06230000      -0.96170000
H        0.63350000      -0.50730000       0.74340000
H       -1.83510000      -0.58080000       1.03370000
H       -2.05720000      -0.06950000      -0.63760000
H       -0.89000000      -2.17860000      -1.41580000
H       -0.72200000      -2.69580000       0.26680000
H       -3.36010000      -2.38560000      -1.04020000
H       -6.48250000      -4.96770000       0.06460000
