18
Properties=species:S:1:pos:R:3 gdb_9602=T pbc="F F F"
C       -0.09980000       1.60500000       0.01690000
C       -0.04170000       0.09200000       0.00550000
C       -1.30440000      -0.58510000      -0.47860000
O       -1.51000000      -0.22320000      -1.83830000
C        1.26170000      -0.58750000      -0.30290000
C        0.70960000      -0.64300000       1.11670000
C        1.34810000       0.06970000       2.18330000
C        1.87980000       0.65730000       3.08910000
H        0.83670000       2.03710000       0.37590000
H       -0.29730000       1.97600000      -0.99230000
H       -0.90310000       1.96010000       0.67290000
H       -1.20650000      -1.67760000      -0.37200000
H       -2.15390000      -0.26670000       0.14690000
H       -2.38270000      -0.52920000      -2.10190000
H        1.24780000      -1.50790000      -0.87630000
H        2.13300000       0.03610000      -0.46580000
H        0.28440000      -1.59840000       1.41400000
H        2.35040000       1.17590000       3.88680000
