17
Properties=species:S:1:pos:R:3 gdb_41087=T pbc="F F F"
C       -0.01580000       1.45130000      -0.26610000
O        1.36450000       1.66020000       0.22000000
C        1.20680000       0.42270000       0.87860000
C        1.94840000      -0.79040000       1.56730000
C        1.56790000      -0.24240000       2.95260000
C        0.33720000       0.30740000       2.21050000
C       -0.27050000      -0.84240000       1.34260000
O        0.88280000      -1.74810000       1.33660000
C        0.05100000      -0.08440000       0.03280000
H       -0.72820000       2.03710000       0.32160000
H       -0.08930000       1.70810000      -1.32400000
H        2.91150000      -1.21310000       1.29210000
H        1.44250000      -0.97730000       3.75050000
H        2.21550000       0.57900000       3.27210000
H       -0.30120000       1.10180000       2.58710000
H       -1.17400000      -1.40770000       1.56510000
H        0.22560000      -0.69790000      -0.85120000
