16
Properties=species:S:1:pos:R:3 gdb_4074=T pbc="F F F"
O       -0.23140000       1.31220000       0.46350000
N       -0.03380000      -0.07660000       0.33840000
C       -1.06920000      -0.63790000      -0.12300000
C       -2.45800000      -0.17950000      -0.53670000
C       -2.79760000      -1.67310000      -0.72820000
C       -4.06220000      -2.35470000      -0.38660000
N       -3.59660000      -2.26890000      -1.78880000
C       -1.34840000      -2.10130000      -0.41170000
H        0.61250000       1.60480000       0.82400000
H       -3.01920000       0.36570000       0.22820000
H       -2.46380000       0.41360000      -1.45880000
H       -4.04710000      -3.35570000       0.03670000
H       -4.90600000      -1.74320000      -0.07570000
H       -4.11680000      -1.54920000      -2.28580000
H       -0.81490000      -2.49980000      -1.28060000
H       -1.21580000      -2.78720000       0.42990000
