20
Properties=species:S:1:pos:R:3 gdb_30251=T pbc="F F F"
C       -0.38380000       1.47000000       0.07240000
C       -0.01820000      -0.01040000       0.03470000
C        1.14780000      -0.42440000      -0.95470000
N        1.89280000      -0.86000000       0.23410000
C        2.92290000      -1.51220000       0.84830000
C        2.56170000      -1.58190000       2.18570000
C        1.26890000      -0.98470000       2.38050000
C        0.51570000      -0.86810000       3.67170000
C        0.90590000      -0.55400000       1.12180000
H        0.50810000       2.09090000       0.20320000
H       -0.88590000       1.77570000      -0.85220000
H       -1.06220000       1.67980000       0.90540000
H       -0.91740000      -0.61580000      -0.12450000
H        0.90640000      -1.23360000      -1.65080000
H        1.61750000       0.40210000      -1.49760000
H        3.80940000      -1.84370000       0.33270000
H        3.17280000      -2.01150000       2.96740000
H        1.02510000      -0.21200000       4.38830000
H       -0.48520000      -0.45720000       3.50940000
H        0.39580000      -1.84170000       4.16120000
