20
Properties=species:S:1:pos:R:3 gdb_7553=T pbc="F F F"
C       -0.91950000       1.36340000       0.41060000
O       -1.17250000      -0.01560000       0.57230000
C       -0.69540000      -0.80040000      -0.51260000
C       -0.97460000      -2.27400000      -0.28640000
C       -0.39630000      -3.14710000      -1.38260000
C       -0.98240000      -2.80180000       1.14220000
C       -2.27380000      -2.69230000       0.36390000
O       -3.28150000      -1.79270000       0.70380000
H       -1.31050000       1.87330000       1.29370000
H        0.15940000       1.56200000       0.32950000
H       -1.41510000       1.76460000      -0.48590000
H       -1.17530000      -0.46730000      -1.44910000
H        0.38990000      -0.63780000      -0.62950000
H        0.69790000      -3.07390000      -1.41850000
H       -0.64960000      -4.19830000      -1.21770000
H       -0.78390000      -2.86390000      -2.36890000
H       -0.55710000      -3.78190000       1.33570000
H       -0.83080000      -2.07450000       1.93220000
H       -2.71600000      -3.61890000       0.00850000
H       -2.85020000      -0.94500000       0.88120000
