18
Properties=species:S:1:pos:R:3 gdb_123738=T pbc="F F F"
C       -0.14320000       1.49200000       0.01660000
C        1.39180000       1.50680000      -0.20740000
C        1.47640000       0.13620000       0.53610000
C       -0.05050000      -0.03750000       0.25870000
C        2.43440000      -0.90010000       0.06720000
N        3.31760000      -1.47670000       0.89110000
N        3.97050000      -2.32270000       0.10450000
N        3.59990000      -2.36040000      -1.16740000
C        2.61880000      -1.45990000      -1.21540000
H       -0.42360000       2.02880000       0.92740000
H       -0.77940000       1.83960000      -0.80010000
H        1.64550000       1.39680000      -1.26620000
H        1.97110000       2.33620000       0.20470000
H        1.64570000       0.30020000       1.60320000
H       -0.65660000      -0.47750000       1.05400000
H       -0.22160000      -0.60250000      -0.66270000
H        4.71090000      -2.90750000       0.45650000
H        2.10340000      -1.25810000      -2.14090000
