21
Properties=species:S:1:pos:R:3 gdb_73564=T pbc="F F F"
C       -0.02660000       1.52030000       0.01090000
C       -0.00790000      -0.00150000      -0.02150000
C       -1.39900000      -0.66560000      -0.08900000
C       -1.64310000      -1.18330000       1.34660000
C       -0.26120000      -1.69110000       1.81830000
C        0.72790000      -0.68900000       1.19990000
C        1.79590000      -1.19440000       0.20870000
O        1.12630000      -1.99750000      -0.77410000
C        1.10790000      -0.57490000      -0.93300000
H        0.97950000       1.93070000       0.15600000
H       -0.42130000       1.93030000      -0.92620000
H       -0.65740000       1.88850000       0.82740000
H       -2.18130000       0.02120000      -0.42640000
H       -1.37160000      -1.51270000      -0.78090000
H       -1.97200000      -0.35590000       1.98870000
H       -2.41980000      -1.95290000       1.39500000
H       -0.18650000      -1.75500000       2.90750000
H       -0.07880000      -2.68920000       1.40880000
H        1.12950000       0.03530000       1.91350000
H        2.84660000      -1.40310000       0.37620000
H        1.49230000      -0.17660000      -1.86650000
