14
Properties=species:S:1:pos:R:3 gdb_28781=T pbc="F F F"
N        0.17390000       1.45910000      -0.04370000
C        0.03750000       0.05880000      -0.06460000
C       -1.01370000      -0.83300000      -0.13400000
N       -0.60690000      -2.16030000      -0.12360000
C        0.68730000      -2.04660000      -0.04760000
O        1.72070000      -2.92000000       0.00220000
C        2.85690000      -2.13700000       0.07420000
C        2.54820000      -0.82360000       0.06980000
N        1.16040000      -0.76890000      -0.00760000
H       -0.19280000       1.89600000      -0.88170000
H       -0.28410000       1.88080000       0.75630000
H       -2.06310000      -0.58280000      -0.19170000
H        3.79310000      -2.66390000       0.12220000
H        3.17530000       0.04900000       0.11420000
