21
Properties=species:S:1:pos:R:3 gdb_89445=T pbc="F F F"
C       -0.27230000       1.46630000       0.26620000
C        0.09690000       0.03100000      -0.08220000
C       -1.08730000      -0.98330000       0.02830000
C       -0.47010000      -1.56810000       1.32800000
O       -0.42460000      -2.96210000       1.49760000
C        0.85260000      -0.79320000       1.02710000
C        1.87720000      -1.56650000       0.24400000
C        1.91320000      -1.21370000      -1.04330000
C        0.93460000      -0.11260000      -1.37550000
H        0.62250000       2.08920000       0.37750000
H       -0.89520000       1.91440000      -0.51700000
H       -0.83510000       1.52110000       1.20460000
H       -2.09170000      -0.55890000       0.11020000
H       -1.08800000      -1.71670000      -0.78450000
H       -0.96260000      -1.18030000       2.22410000
H        0.05010000      -3.32610000       0.74130000
H        1.28670000      -0.25600000       1.87800000
H        2.51760000      -2.31450000       0.70030000
H        2.58550000      -1.63600000      -1.78340000
H        0.30570000      -0.35290000      -2.24310000
H        1.46470000       0.81650000      -1.63200000
