18
Properties=species:S:1:pos:R:3 gdb_97237=T pbc="F F F"
C        0.14000000       1.39720000       0.36080000
N       -0.02670000      -0.01220000       0.08170000
C       -1.14730000      -0.58790000      -0.09560000
N       -1.14250000      -1.96930000      -0.26830000
C       -2.25770000      -2.63820000      -0.90100000
C       -3.50940000      -2.16310000      -0.19340000
O       -3.62120000      -0.73900000      -0.27530000
C       -2.51650000       0.05080000      -0.11910000
N       -2.64710000       1.31040000      -0.04290000
H        1.19770000       1.57670000       0.57780000
H       -0.15410000       2.02110000      -0.49110000
H       -0.46260000       1.73970000       1.20950000
H       -0.21180000      -2.32190000      -0.44190000
H       -2.33900000      -2.43270000      -1.98140000
H       -2.15000000      -3.71970000      -0.77300000
H       -4.41650000      -2.55610000      -0.65800000
H       -3.48350000      -2.46770000       0.86010000
H       -3.63950000       1.55260000      -0.08800000
