15
Properties=species:S:1:pos:R:3 gdb_23533=T pbc="F F F"
O       -0.13170000       1.29350000       0.01710000
N        0.04720000      -0.09490000      -0.06370000
C       -1.05470000      -0.70170000       0.06320000
C       -1.40660000      -2.13720000      -0.04740000
C       -2.30370000      -2.53170000       1.11190000
C       -2.90330000      -1.74770000      -0.00640000
C       -2.52950000      -0.25030000       0.12370000
C       -3.00710000       0.46390000       1.30060000
N       -3.39410000       1.00240000       2.24730000
H        0.76790000       1.62550000      -0.07670000
H       -0.89710000      -2.86900000      -0.65930000
H       -2.56550000      -3.58440000       1.13080000
H       -2.16860000      -2.08410000       2.09190000
H       -3.70850000      -2.11230000      -0.62900000
H       -2.76700000       0.32610000      -0.77580000
