19
Properties=species:S:1:pos:R:3 gdb_37635=T pbc="F F F"
C        0.00470000       1.54290000       0.22240000
C        1.36380000       2.16400000      -0.19990000
C        2.39330000       1.02730000      -0.29820000
O        2.27180000       0.21830000       0.88950000
C        1.25860000      -0.71180000       0.53560000
C        1.62020000      -1.25120000      -0.86450000
C        0.57070000      -0.33960000      -1.47380000
C        2.03640000       0.06810000      -1.44900000
C        0.01970000       0.04460000      -0.09460000
H       -0.15220000       1.67900000       1.29770000
H       -0.83020000       2.03840000      -0.28390000
H        1.28850000       2.66130000      -1.17390000
H        1.69120000       2.91560000       0.52420000
H        3.42070000       1.39500000      -0.35650000
H        1.08110000      -1.38970000       1.36890000
H        1.99410000      -2.22200000      -1.15870000
H        0.01210000      -0.45630000      -2.39480000
H        2.58250000       0.10610000      -2.38280000
H       -0.92400000      -0.45190000       0.14310000
