18
Properties=species:S:1:pos:R:3 gdb_63602=T pbc="F F F"
C       -0.08730000       1.53360000      -0.08890000
C       -0.02440000       0.02450000       0.00340000
C       -1.23020000      -0.70730000      -0.55080000
N        1.30450000      -0.55040000      -0.20670000
C        0.70380000      -0.63070000       1.15440000
C        1.32790000       0.11500000       2.20290000
C        1.82020000       0.73010000       3.12080000
C        2.43710000       1.48600000       4.17610000
O        2.28180000       1.27370000       5.35800000
H        0.82340000       1.98590000       0.30620000
H       -0.19740000       1.84050000      -1.13460000
H       -0.94430000       1.92190000       0.47100000
H       -1.33660000      -0.50460000      -1.62270000
H       -1.14160000      -1.79020000      -0.41690000
H       -2.15170000      -0.37910000      -0.05900000
H        1.23450000      -1.46690000      -0.64500000
H        0.30700000      -1.59480000       1.46520000
H        3.09010000       2.30820000       3.81780000
