19
Properties=species:S:1:pos:R:3 gdb_71774=T pbc="F F F"
O       -0.06220000       1.36940000      -0.06000000
C        0.01800000      -0.02430000      -0.05110000
C        1.00210000      -0.70740000      -0.99450000
C        0.45240000      -2.11700000      -1.14660000
C        0.07930000      -2.85910000       0.11810000
C        0.29930000      -2.13140000       1.43780000
C       -0.33510000      -0.76470000       1.21940000
C       -1.26230000      -0.82350000       0.00530000
C       -0.99660000      -2.14650000      -0.68360000
H        0.66490000       1.71370000       0.47020000
H        0.99600000      -0.18020000      -1.95540000
H        2.03180000      -0.69110000      -0.61330000
H        0.76730000      -2.70680000      -2.00030000
H        0.14920000      -3.94140000       0.10150000
H       -0.20840000      -2.65980000       2.25360000
H        1.36160000      -2.06580000       1.70620000
H       -0.61170000      -0.15290000       2.07180000
H       -2.23240000      -0.34550000      -0.00600000
H       -1.77660000      -2.66980000      -1.22030000
