19
Properties=species:S:1:pos:R:3 gdb_69418=T pbc="F F F"
C       -0.08150000       1.50410000       0.39970000
C       -0.02940000       0.02640000       0.19470000
C       -0.41140000      -1.04640000       1.16410000
C        0.96930000      -1.06400000       0.52890000
C        0.85560000      -1.44050000      -0.94380000
C        0.43800000      -2.85100000      -1.36810000
C        1.52250000      -3.80820000      -1.19560000
C        2.44040000      -4.56810000      -1.03860000
O       -0.19840000      -0.46070000      -1.15140000
H        0.64020000       2.01640000      -0.24410000
H       -1.08030000       1.88810000       0.16300000
H        0.13770000       1.75430000       1.44160000
H       -0.40790000      -0.75580000       2.21030000
H       -1.16930000      -1.77780000       0.89770000
H        1.88420000      -1.03530000       1.10450000
H        1.75040000      -1.14180000      -1.50330000
H       -0.44120000      -3.16390000      -0.79400000
H        0.12650000      -2.81490000      -2.41980000
H        3.24080000      -5.25280000      -0.90550000
