21
Properties=species:S:1:pos:R:3 gdb_38744=T pbc="F F F"
C       -0.03840000       1.55370000      -0.01670000
C        1.51000000       1.52610000       0.00850000
C        2.16670000       1.47300000       1.41440000
C        2.17300000      -0.03280000       1.81820000
C        2.44520000      -0.72260000       0.45750000
C        1.46580000       0.02660000      -0.43550000
C       -0.04310000      -0.01280000       0.02660000
C       -0.20660000      -0.53310000       1.42740000
C        0.81230000      -0.50140000       2.28880000
H       -0.55290000       2.06780000       0.80000000
H       -0.41690000       1.93380000      -0.97050000
H        2.01300000       2.24370000      -0.64360000
H        3.20090000       1.83010000       1.34700000
H        1.65160000       2.09990000       2.14800000
H        2.93900000      -0.24400000       2.56820000
H        3.47420000      -0.53960000       0.12370000
H        2.28030000      -1.80310000       0.49580000
H        1.57720000      -0.15660000      -1.50560000
H       -0.74220000      -0.49580000      -0.66120000
H       -1.19010000      -0.88150000       1.73230000
H        0.69170000      -0.82810000       3.31770000
