16
Properties=species:S:1:pos:R:3 gdb_16819=T pbc="F F F"
C       -0.15640000       1.60040000       0.00960000
C        0.04410000       0.08440000       0.01630000
N        0.90180000      -0.39990000      -1.05090000
C        1.86560000      -1.30020000      -0.66430000
O        2.63200000      -1.88960000      -1.37990000
N        1.81510000      -1.42990000       0.77870000
C        2.21370000      -0.15660000       1.42950000
C        0.78200000      -0.47900000       1.23350000
H        0.80070000       2.12460000       0.07640000
H       -0.66300000       1.92430000      -0.90550000
H       -0.77940000       1.90230000       0.85740000
H       -0.94380000      -0.39760000      -0.03530000
H        0.72770000      -0.23450000      -2.02860000
H        2.66160000      -0.27580000       2.41080000
H        2.67360000       0.60190000       0.80210000
H        0.18180000      -0.79510000       2.08020000
