20
Properties=species:S:1:pos:R:3 gdb_85072=T pbc="F F F"
C        0.00340000       1.59170000      -0.00750000
C        0.01940000       0.05930000       0.03590000
C        0.67020000      -0.53290000      -1.22460000
C        0.91750000      -2.03590000      -1.16710000
O        0.84310000      -2.75250000      -2.14690000
N        1.29870000      -2.51450000       0.07550000
C        1.66830000      -3.91550000       0.22180000
C        1.31170000      -1.68580000       1.20770000
C        0.73960000      -0.48180000       1.24560000
H        1.02240000       1.99160000      -0.05290000
H       -0.54250000       1.95480000      -0.88410000
H       -0.47970000       2.00400000       0.88430000
H       -1.02770000      -0.28410000       0.07540000
H        0.08270000      -0.33800000      -2.12400000
H        1.65340000      -0.06150000      -1.37020000
H        2.64480000      -4.00120000       0.71050000
H        0.92850000      -4.46110000       0.81860000
H        1.71560000      -4.35320000      -0.77400000
H        1.81910000      -2.11840000       2.06320000
H        0.78190000       0.10280000       2.15740000
