13
Properties=species:S:1:pos:R:3 gdb_3649=T pbc="F F F"
C       -0.04190000       1.52560000       0.02840000
C        1.53740000       1.41750000      -0.03160000
C        1.33170000      -0.02080000       0.43270000
C        1.59830000      -1.31950000       0.82550000
C        0.29410000      -1.83680000       1.06580000
N       -0.69630000      -0.95250000       0.84650000
N       -0.00020000       0.12410000       0.46630000
H       -0.44200000       2.21430000       0.77680000
H       -0.54380000       1.67810000      -0.93030000
H        1.96030000       1.54090000      -1.03110000
H        2.06150000       2.07450000       0.66590000
H        2.53890000      -1.83290000       0.93100000
H        0.03990000      -2.83440000       1.39470000
