18
Properties=species:S:1:pos:R:3 gdb_77754=T pbc="F F F"
C        0.37210000       1.27960000       0.05690000
N       -0.18970000      -0.05780000       0.05630000
C       -0.03410000      -1.01160000      -0.94700000
O        0.05910000      -0.90640000      -2.13990000
C        0.02370000      -2.15210000       0.06380000
C        1.17340000      -1.83080000       1.01950000
O        2.34380000      -1.20360000       0.59850000
C       -0.10110000      -1.05440000       1.13350000
C       -0.97890000      -0.95810000       2.34340000
H        1.41030000       1.28190000       0.40880000
H        0.34380000       1.64880000      -0.97110000
H       -0.22610000       1.94950000       0.68220000
H       -0.44340000      -3.12530000       0.00000000
H        1.31690000      -2.58830000       1.79420000
H        2.75860000      -1.74970000      -0.07840000
H       -0.69570000      -0.10230000       2.96670000
H       -2.02680000      -0.83530000       2.05330000
H       -0.89020000      -1.85820000       2.95820000
