13
Properties=species:S:1:pos:R:3 gdb_132290=T pbc="F F F"
C       -0.01940000       1.50420000      -0.00190000
C        0.00020000       0.00760000      -0.05490000
N       -0.02410000      -0.61280000      -1.20750000
C       -0.00160000      -1.96500000      -1.09920000
F       -0.02640000      -2.56790000      -2.26620000
N        0.03930000      -2.72440000      -0.05690000
C        0.06580000      -2.10480000       1.17430000
O        0.10480000      -2.64370000       2.25050000
N        0.04330000      -0.67500000       1.10490000
H        0.87620000       1.88220000       0.50220000
H       -0.05780000       1.89850000      -1.01620000
H       -0.89040000       1.85750000       0.55990000
H        0.06210000      -0.19760000       1.99600000
