23
Properties=species:S:1:pos:R:3 gdb_120304=T pbc="F F F"
C        0.04840000       1.50880000      -0.23630000
C       -0.14470000       0.01710000      -0.44740000
O        1.09310000      -0.54210000      -0.85880000
C        1.02230000      -1.91200000      -1.10600000
C        0.50820000      -2.48170000      -2.40160000
C        0.86160000      -1.54770000      -3.56420000
C        2.36610000      -1.62210000      -3.16080000
C        2.01130000      -2.57140000      -2.00350000
C        2.85270000      -3.74310000      -1.58280000
H        0.81010000       1.69340000       0.52670000
H        0.37140000       1.98910000      -1.16440000
H       -0.88800000       1.97310000       0.08760000
H       -0.48240000      -0.46490000       0.48530000
H       -0.91740000      -0.17560000      -1.20770000
H        0.75260000      -2.50100000      -0.22550000
H       -0.24630000      -3.26110000      -2.42360000
H        0.67030000      -1.99860000      -4.54020000
H        0.39960000      -0.55650000      -3.53940000
H        2.97570000      -2.11370000      -3.92330000
H        2.84410000      -0.68320000      -2.87140000
H        3.78910000      -3.40910000      -1.11860000
H        2.32900000      -4.37130000      -0.85470000
H        3.11560000      -4.37320000      -2.44040000
