20
Properties=species:S:1:pos:R:3 gdb_16061=T pbc="F F F"
C        0.05910000       1.68320000       0.37860000
C        0.03300000       0.17080000       0.45830000
C        1.06080000      -0.76270000      -0.13900000
C        2.48120000      -0.20290000      -0.00110000
C        2.27970000      -0.11320000       1.54580000
C        0.86070000      -0.68490000       1.38200000
C        0.27740000      -1.69140000       2.34250000
O       -0.96950000      -2.23110000       1.93010000
H        1.06770000       2.09160000       0.48170000
H       -0.33740000       2.02810000      -0.58280000
H       -0.55560000       2.12950000       1.16870000
H       -0.96450000      -0.24660000       0.33150000
H        0.76390000      -1.55450000      -0.81730000
H        3.24940000      -0.93060000      -0.27130000
H        2.69470000       0.73110000      -0.53130000
H        2.94110000      -0.79730000       2.08460000
H        2.36100000       0.87510000       2.00980000
H        0.95430000      -2.54990000       2.43360000
H        0.20260000      -1.24160000       3.34750000
H       -1.63350000      -1.54290000       2.03470000
