25
Properties=species:S:1:pos:R:3 gdb_91803=T pbc="F F F"
C       -0.01140000       1.57150000      -0.11640000
C        0.10170000       0.04940000      -0.04580000
C        0.84930000      -0.59980000      -1.23630000
C        1.25780000      -1.98170000      -0.72840000
C        2.54700000      -2.06890000       0.04950000
C        1.23340000      -1.95340000       0.78920000
C        0.75520000      -3.13210000       1.60650000
C        0.77470000      -0.54560000       1.23320000
C        1.88170000       0.31900000       1.85230000
H        0.97310000       2.05070000      -0.13350000
H       -0.54110000       1.87860000      -1.02480000
H       -0.56440000       1.97530000       0.73890000
H       -0.91600000      -0.36350000      -0.06370000
H        0.21170000      -0.65840000      -2.12380000
H        1.72570000      -0.00230000      -1.52070000
H        0.92120000      -2.86020000      -1.26970000
H        3.04810000      -3.03140000       0.09250000
H        3.22800000      -1.22470000       0.01160000
H        1.05620000      -4.08100000       1.15000000
H        1.16870000      -3.11120000       2.62250000
H       -0.33800000      -3.13770000       1.69640000
H        0.00480000      -0.67270000       2.00410000
H        2.65420000       0.59560000       1.12790000
H        1.47430000       1.24750000       2.26440000
H        2.37580000      -0.21800000       2.66860000
