20
Properties=species:S:1:pos:R:3 gdb_115315=T pbc="F F F"
C        0.02960000       1.56470000       0.20960000
C       -0.10420000       0.08080000      -0.14320000
N       -1.46880000      -0.41050000      -0.06940000
C       -2.17690000      -0.65740000       1.18350000
C       -3.64450000      -0.83710000       0.73640000
C       -3.50910000      -1.38120000      -0.68730000
O       -4.56680000      -1.03480000      -1.54230000
C       -2.19040000      -0.76730000      -1.16460000
O       -1.88370000      -0.62870000      -2.33590000
H        1.07590000       1.87540000       0.13110000
H       -0.56340000       2.17770000      -0.47490000
H       -0.30190000       1.77190000       1.23200000
H        0.22370000      -0.09250000      -1.17160000
H        0.52850000      -0.52550000       0.51860000
H       -1.78670000      -1.55690000       1.68220000
H       -2.05260000       0.18130000       1.87530000
H       -4.21020000      -1.48450000       1.40830000
H       -4.14650000       0.13360000       0.68310000
H       -3.36680000      -2.47690000      -0.66220000
H       -4.15550000      -0.89060000      -2.40780000
