12
Properties=species:S:1:pos:R:3 gdb_48223=T pbc="F F F"
N       -0.12680000       1.26750000       0.43440000
C        0.02350000       0.05780000       0.08230000
C       -1.15710000      -0.66750000      -0.35050000
N       -2.09010000      -1.25850000      -0.69060000
N        1.23770000      -0.67310000       0.02580000
C        1.23570000      -2.08040000       0.26770000
O        2.20100000      -2.77900000       0.21960000
C        2.41610000       0.03780000      -0.34950000
O        3.52880000      -0.38210000      -0.26780000
H        0.73940000       1.69120000       0.76880000
H        0.22120000      -2.43850000       0.50900000
H        2.15500000       1.03240000      -0.75380000
