17
Properties=species:S:1:pos:R:3 gdb_5569=T pbc="F F F"
C        0.22530000       1.58480000       0.28910000
C       -0.09380000       0.11710000      -0.03770000
C        0.56560000      -0.35300000      -1.29500000
C        0.02210000      -0.77480000      -2.46760000
C       -1.35580000      -0.95780000      -2.98860000
O        1.05990000      -1.08910000      -3.31670000
C        2.17480000      -0.83370000      -2.59780000
N        1.95960000      -0.39890000      -1.40340000
H        1.30610000       1.73060000       0.36440000
H       -0.15040000       2.25180000      -0.49340000
H       -0.23080000       1.88100000       1.23870000
H        0.24020000      -0.51570000       0.79400000
H       -1.17720000      -0.02270000      -0.11980000
H       -1.53780000      -0.33570000      -3.87230000
H       -1.54230000      -1.99880000      -3.27580000
H       -2.08420000      -0.68110000      -2.22340000
H        3.11940000      -1.01800000      -3.08560000
