15
Properties=species:S:1:pos:R:3 gdb_8658=T pbc="F F F"
C       -0.11290000       1.43300000       0.16680000
C       -0.10610000      -0.07260000      -0.10130000
C        0.77250000      -0.48930000      -1.29520000
O        2.15130000      -0.22080000      -1.10930000
C        0.71540000      -2.02600000      -1.50860000
O       -0.22980000      -2.70230000      -1.22440000
C        0.29520000       0.13650000      -2.54910000
N       -0.05850000       0.63950000      -3.52830000
H        0.88920000       1.80530000       0.40660000
H       -0.49200000       1.99360000      -0.69340000
H       -0.75260000       1.66080000       1.02330000
H        0.27640000      -0.61540000       0.76920000
H       -1.11750000      -0.44370000      -0.28960000
H        2.28790000       0.73280000      -1.11110000
H        1.65270000      -2.42730000      -1.94390000
