20
Properties=species:S:1:pos:R:3 gdb_117202=T pbc="F F F"
C        0.05950000       1.52640000      -0.21630000
C        0.07160000       0.02260000      -0.01890000
O        0.68440000      -0.56280000      -1.18040000
C        0.78000000      -1.91000000      -1.21230000
N        0.36060000      -2.61850000      -0.24650000
C        1.48160000      -2.32640000      -2.47640000
O        1.42860000      -1.40490000      -3.52350000
C        2.75310000      -3.15210000      -2.32430000
C        1.49960000      -3.76080000      -2.90480000
H        1.07570000       1.91630000      -0.32610000
H       -0.51390000       1.80040000      -1.10670000
H       -0.40110000       2.00930000       0.65060000
H        0.64110000      -0.27420000       0.86760000
H       -0.93660000      -0.38820000       0.09200000
H        0.48970000      -3.61040000      -0.43050000
H        1.48090000      -0.53030000      -3.12040000
H        3.55660000      -2.90740000      -3.00920000
H        3.05720000      -3.44400000      -1.32530000
H        0.94840000      -4.49300000      -2.32470000
H        1.46830000      -3.91710000      -3.97670000
