10
Properties=species:S:1:pos:R:3 gdb_23674=T pbc="F F F"
F        0.01190000       0.05770000       0.00300000
C       -0.02380000       1.37680000       0.01070000
C       -1.25600000       2.01470000       0.03120000
C       -1.16790000       3.39950000       0.03770000
F       -2.27990000       4.10970000       0.05690000
N       -0.03550000       4.07590000       0.02590000
C        1.06920000       3.33010000       0.00660000
N        1.13910000       1.99900000      -0.00180000
H       -2.19640000       1.48260000       0.04120000
H        2.01460000       3.86500000      -0.00350000
