17
Properties=species:S:1:pos:R:3 gdb_7527=T pbc="F F F"
C        0.01860000       1.57200000      -0.39630000
C       -0.01350000       0.10560000      -0.04180000
C        1.23740000      -0.72810000      -0.12450000
C        0.62160000      -0.40920000       1.22270000
O        1.21500000       0.52920000       2.06870000
O       -1.17150000      -0.57830000      -0.48740000
C       -2.29810000      -0.38280000       0.23410000
N       -3.39020000      -0.87520000      -0.16290000
H        0.92290000       2.03680000      -0.00030000
H       -0.00740000       1.69940000      -1.48270000
H       -0.84180000       2.09880000       0.02980000
H        1.13920000      -1.74030000      -0.49930000
H        2.15230000      -0.21180000      -0.39430000
H        0.10300000      -1.22700000       1.72290000
H        2.03430000       0.15150000       2.40560000
H       -2.13540000       0.20290000       1.14780000
H       -4.12930000      -0.65240000       0.50070000
