22
Properties=species:S:1:pos:R:3 gdb_59142=T pbc="F F F"
C        0.04980000       1.43830000      -0.20920000
C        0.19060000      -0.03720000       0.19040000
C        0.69640000      -0.17660000       1.63320000
C       -1.16170000      -0.73370000       0.05460000
C       -1.93410000      -1.21170000      -1.15170000
C       -1.17080000      -2.11320000      -2.16420000
N        0.25450000      -2.24470000      -1.76650000
C       -0.79500000      -3.05210000      -1.09290000
C       -1.54140000      -2.19260000      -0.03240000
H        1.00810000       1.96140000      -0.12120000
H       -0.29470000       1.53580000      -1.24370000
H       -0.67140000       1.95900000       0.43390000
H        0.90560000      -0.51280000      -0.47730000
H        0.81230000      -1.22910000       1.91080000
H        1.66730000       0.31490000       1.75740000
H       -0.00020000       0.28250000       2.34650000
H       -1.88130000      -0.25450000       0.72700000
H       -2.92680000      -0.84160000      -1.37790000
H       -1.48700000      -2.30140000      -3.18200000
H        0.69280000      -2.85610000      -2.45610000
H       -0.75350000      -4.13360000      -1.09130000
H       -2.20060000      -2.65560000       0.69200000
