16
Properties=species:S:1:pos:R:3 gdb_53821=T pbc="F F F"
O       -0.19960000       1.07170000      -1.17680000
C        0.01400000       1.26210000       0.04880000
O        0.92400000       1.00670000       0.82000000
C       -1.23910000       2.03250000       0.48970000
O       -2.24790000       1.61500000       1.05460000
C       -1.33210000       3.49900000      -0.01720000
C       -1.56160000       3.70600000      -1.53560000
C       -3.05050000       3.98590000      -1.22000000
N       -2.77120000       3.89940000       0.27220000
H       -3.11960000       3.01860000       0.76650000
H       -2.93500000       4.74130000       0.81640000
H       -0.59550000       4.13260000       0.47810000
H       -1.03840000       4.56850000      -1.95000000
H       -1.33740000       2.81050000      -2.11100000
H       -3.43850000       4.96680000      -1.49180000
H       -3.75840000       3.21010000      -1.51130000
