18
Properties=species:S:1:pos:R:3 gdb_83828=T pbc="F F F"
O        0.09650000       1.37030000      -0.31970000
C       -0.01500000       0.02940000       0.03560000
C       -1.39560000      -0.56770000       0.24860000
C       -2.64500000       0.27040000       0.09860000
C       -3.64700000      -0.37560000      -0.86600000
N       -3.29620000      -0.36280000      -2.27660000
C       -2.14570000      -0.32420000      -2.77330000
O       -0.87880000      -0.31770000      -2.22620000
C       -0.59640000      -0.91840000      -0.98090000
H        0.05030000       1.41200000      -1.28370000
H        0.80250000      -0.31780000       0.66210000
H       -1.45590000      -1.36990000       0.97980000
H       -3.11900000       0.40360000       1.07780000
H       -2.38060000       1.27130000      -0.25690000
H       -3.83610000      -1.41730000      -0.56960000
H       -4.61380000       0.13550000      -0.78420000
H       -2.02870000      -0.24250000      -3.85410000
H       -0.18270000      -1.91620000      -1.09770000
