25
Properties=species:S:1:pos:R:3 gdb_57328=T pbc="F F F"
C       -0.05050000       1.54630000       0.06690000
C       -0.00990000       0.00420000       0.04230000
C        0.70320000      -0.48290000       1.31970000
C       -1.46330000      -0.51240000       0.07040000
C        0.73290000      -0.50790000      -1.26890000
C        2.19360000       0.00640000      -1.35550000
C        0.77570000      -2.05600000      -1.35330000
C        0.02050000      -0.01950000      -2.45910000
C       -0.53410000       0.36050000      -3.45700000
H        0.94670000       1.98360000       0.16810000
H       -0.50830000       1.94670000      -0.84160000
H       -0.64210000       1.88860000       0.92230000
H        0.16530000      -0.11320000       2.19910000
H        0.72800000      -1.57380000       1.39240000
H        1.72960000      -0.11220000       1.39060000
H       -2.00260000      -0.23250000      -0.83850000
H       -1.51250000      -1.59990000       0.17560000
H       -1.99460000      -0.08050000       0.92490000
H        2.79060000      -0.36910000      -0.52020000
H        2.65250000      -0.34940000      -2.28190000
H        2.24510000       1.09650000      -1.36000000
H       -0.22370000      -2.49440000      -1.35710000
H        1.27210000      -2.35840000      -2.27930000
H        1.34020000      -2.47790000      -0.51750000
H       -1.02870000       0.69950000      -4.33340000
