19
Properties=species:S:1:pos:R:3 gdb_125546=T pbc="F F F"
C       -0.03610000       1.42880000      -0.09610000
C        0.00510000      -0.06080000       0.04450000
N       -0.00130000      -0.84170000      -1.04410000
N        0.06780000      -2.08600000      -0.54480000
C        0.00350000      -3.36960000      -1.21620000
C        0.41520000      -4.32840000      -0.06940000
C        0.10180000      -3.56610000       1.25630000
C        0.09920000      -2.13700000       0.80610000
C        0.06380000      -0.82730000       1.23950000
H        0.86490000       1.89790000       0.31520000
H       -0.11150000       1.69950000      -1.15140000
H       -0.89400000       1.85860000       0.43300000
H       -1.01300000      -3.56340000      -1.58100000
H        0.68330000      -3.40090000      -2.07110000
H       -0.09910000      -5.28920000      -0.13340000
H        1.48940000      -4.52300000      -0.13060000
H       -0.87760000      -3.85300000       1.65910000
H        0.84010000      -3.77790000       2.03440000
H        0.08490000      -0.46290000       2.25410000
