19
Properties=species:S:1:pos:R:3 gdb_11409=T pbc="F F F"
C        0.07680000       1.37690000       0.36500000
C       -0.10610000      -0.12510000       0.13490000
C       -1.54110000      -0.50900000      -0.22800000
C       -1.78080000      -2.02670000      -0.35560000
C       -2.25390000      -2.41450000       1.05190000
C       -2.87550000      -1.13620000       1.57160000
N       -3.66590000      -1.04290000       2.55180000
O       -2.45200000      -0.08120000       0.81220000
H        1.11140000       1.61100000       0.63180000
H       -0.17330000       1.94700000      -0.53680000
H       -0.57290000       1.72650000       1.17130000
H        0.54550000      -0.46410000      -0.68070000
H        0.19870000      -0.68270000       1.03000000
H       -1.84270000       0.02980000      -1.13260000
H       -2.56840000      -2.22130000      -1.08930000
H       -0.88320000      -2.55900000      -0.67780000
H       -2.97080000      -3.23520000       1.07950000
H       -1.41560000      -2.69150000       1.70040000
H       -3.92930000      -0.06780000       2.70520000
