20
Properties=species:S:1:pos:R:3 gdb_110500=T pbc="F F F"
C       -0.06130000       1.52770000      -0.00090000
C       -0.01450000       0.02740000       0.01380000
C        0.36780000      -0.79150000      -1.24290000
C       -0.58890000      -1.82220000      -0.67930000
C       -0.49810000      -1.80720000       0.81420000
C        0.52290000      -0.76300000       1.23840000
C        1.99860000      -1.10530000       1.40290000
O        2.24720000      -1.84160000       2.59420000
N       -1.35460000      -0.79530000       0.10730000
H        0.94960000       1.94540000      -0.07530000
H       -0.64180000       1.89010000      -0.85530000
H       -0.52360000       1.91380000       0.91300000
H       -0.05250000      -0.32760000      -2.14000000
H        1.41620000      -1.04890000      -1.42240000
H       -1.10650000      -2.61330000      -1.21050000
H       -0.95610000      -2.58190000       1.42050000
H        0.17040000      -0.27380000       2.15360000
H        2.37770000      -1.64430000       0.52260000
H        2.58590000      -0.18460000       1.49830000
H        1.79700000      -2.68840000       2.51320000
