15
Properties=species:S:1:pos:R:3 gdb_12727=T pbc="F F F"
O        0.43820000       1.29380000      -0.32310000
C        0.11010000      -0.02530000      -0.06880000
C        0.32020000      -0.98190000      -1.27020000
N       -1.00050000      -1.64540000      -1.06690000
C       -1.32430000      -0.74660000       0.06530000
C       -0.88490000      -1.37620000       1.41500000
C        0.41170000      -0.55240000       1.33070000
O        1.20230000      -0.15810000       2.14490000
H        0.75690000       1.67990000       0.50340000
H        0.38250000      -0.38030000      -2.18220000
H        1.17810000      -1.66050000      -1.23140000
H       -1.61450000      -1.49840000      -1.85980000
H       -2.27840000      -0.22100000       0.04170000
H       -1.48030000      -1.09620000       2.28900000
H       -0.77090000      -2.46170000       1.38200000
