19
Properties=species:S:1:pos:R:3 gdb_101452=T pbc="F F F"
O       -0.17880000       1.36380000       0.00030000
C       -0.01140000      -0.05190000       0.03990000
C       -1.41540000      -0.63350000       0.08780000
O       -2.17490000      -0.18000000      -1.03400000
C       -1.43470000      -2.15330000       0.01910000
O       -0.96300000      -2.77170000       1.23370000
C       -2.25890000      -3.36850000       1.49010000
C       -2.83920000      -2.79180000       0.18550000
O       -3.91650000      -1.91520000       0.38950000
H        0.66830000       1.77040000      -0.20160000
H        0.50510000      -0.41310000      -0.86190000
H        0.55420000      -0.37480000       0.92430000
H       -1.89580000      -0.31580000       1.02370000
H       -1.99070000       0.76530000      -1.10870000
H       -0.86990000      -2.49870000      -0.85720000
H       -2.19480000      -4.45990000       1.55850000
H       -2.73300000      -2.96390000       2.39100000
H       -3.06990000      -3.54570000      -0.57800000
H       -3.84530000      -1.22440000      -0.28470000
