14
Properties=species:S:1:pos:R:3 gdb_11317=T pbc="F F F"
C        0.03860000       1.42260000       0.00780000
N        0.04450000      -0.03170000       0.00300000
C       -1.07530000      -0.63400000       0.00890000
N       -2.37200000      -0.11740000       0.01950000
C       -3.33180000      -1.13480000       0.02340000
O       -4.52880000      -0.97480000       0.03180000
C       -2.54280000      -2.40510000       0.01310000
C       -1.23920000      -2.10400000       0.00520000
H        1.06730000       1.78890000      -0.00060000
H       -0.47330000       1.83530000      -0.87410000
H       -0.45650000       1.82920000       0.90200000
H       -2.62050000       0.85680000       0.02470000
H       -3.01860000      -3.37450000       0.01290000
H       -0.38450000      -2.76460000      -0.00310000
