18
Properties=species:S:1:pos:R:3 gdb_114607=T pbc="F F F"
O        0.31310000       0.65530000       0.86940000
C       -0.19970000       0.39410000      -0.43010000
C       -1.51700000      -0.36740000      -0.36780000
C       -2.11300000      -0.94660000      -1.70140000
C       -2.04240000      -2.35000000      -1.09230000
N       -0.65820000      -2.62310000      -0.74380000
C       -1.45310000      -1.79640000       0.19690000
C       -1.76910000      -2.31080000       1.53280000
O       -1.59970000      -3.46720000       1.85970000
H        0.71920000      -0.15600000       1.18980000
H       -0.35670000       1.37020000      -0.90260000
H        0.52000000      -0.16400000      -1.04270000
H       -2.26150000       0.22200000       0.17560000
H       -3.13180000      -0.60670000      -1.89320000
H       -1.50630000      -0.81360000      -2.60100000
H       -2.76600000      -3.15220000      -1.17760000
H       -0.61980000      -3.55150000      -0.31700000
H       -2.20060000      -1.56610000       2.23450000
