16
Properties=species:S:1:pos:R:3 gdb_44553=T pbc="F F F"
O        0.03610000      -0.04670000      -0.02100000
C       -0.01630000       1.15060000      -0.00520000
N       -1.13960000       1.94790000       0.01380000
C       -0.84320000       3.35160000       0.08940000
C       -0.78340000       4.07250000       1.45570000
C       -0.00920000       3.26710000       2.45250000
C        0.76130000       4.02820000       1.41360000
C        0.70880000       3.32790000       0.05420000
O        1.10040000       1.95660000      -0.01470000
H       -2.04580000       1.52250000       0.10320000
H       -1.33250000       3.93630000      -0.69310000
H       -1.42650000       4.89530000       1.74180000
H        0.03800000       3.69720000       3.44730000
H       -0.04110000       2.18230000       2.44570000
H        1.47350000       4.79950000       1.67770000
H        1.18780000       3.87660000      -0.75740000
