20
Properties=species:S:1:pos:R:3 gdb_110802=T pbc="F F F"
C       -1.39660000       0.78070000       0.79390000
C       -0.11510000       0.24630000       0.14000000
C        0.76280000      -0.44540000       1.16210000
C        0.72240000      -1.87540000       1.52700000
C        0.47900000      -2.78150000       0.32260000
C        1.76740000      -2.15570000      -0.29280000
C        1.75110000      -1.55550000      -1.61370000
C        1.76640000      -1.09440000      -2.72460000
N        1.98050000      -1.25260000       0.91250000
H       -1.16760000       1.48110000       1.60470000
H       -2.01800000       1.30810000       0.06420000
H       -1.99380000      -0.03300000       1.21880000
H       -0.37340000      -0.42050000      -0.68510000
H        0.44820000       1.07400000      -0.30690000
H        0.97320000       0.19920000       2.01610000
H        0.71560000      -2.21720000       2.55730000
H        0.59680000      -3.84450000       0.53620000
H       -0.45760000      -2.63210000      -0.22000000
H        2.58350000      -2.88380000      -0.25960000
H        1.77570000      -0.67510000      -3.70040000
