19
Properties=species:S:1:pos:R:3 gdb_65662=T pbc="F F F"
C       -0.22080000       1.55870000       0.08370000
C        0.01150000       0.05180000      -0.00770000
C       -1.29980000      -0.67680000      -0.34460000
C       -1.83250000      -0.32400000      -1.71290000
O       -2.95020000       0.05940000      -1.94700000
C        1.30730000      -0.52470000      -0.69000000
C        2.18150000      -0.00830000       0.47590000
C        0.91190000      -0.68090000       1.04800000
O        1.11980000      -1.78020000       0.07620000
H        0.67390000       2.13150000       0.32880000
H       -0.61230000       1.94540000      -0.86360000
H       -0.97540000       1.77420000       0.84820000
H       -1.10170000      -1.75450000      -0.33610000
H       -2.07460000      -0.44990000       0.39470000
H       -1.09410000      -0.45770000      -2.53940000
H        1.55530000      -0.61900000      -1.74830000
H        3.09250000      -0.58580000       0.63030000
H        2.33820000       1.06150000       0.60710000
H        0.67530000      -0.96110000       2.07580000
