23
Properties=species:S:1:pos:R:3 gdb_83637=T pbc="F F F"
C       -0.62530000       1.38030000       0.05480000
C       -0.06400000      -0.03120000      -0.05040000
C        0.73330000      -0.47670000      -1.30440000
C        1.82280000       0.49530000      -1.85230000
C        2.92040000      -0.29490000      -1.07800000
C        1.82240000      -1.13450000      -0.38580000
C        1.12160000      -0.52350000       0.86750000
C        1.87590000       0.53120000       1.66770000
O        0.74960000      -1.60110000       1.72190000
H        0.14130000       2.14970000      -0.07790000
H       -1.39320000       1.54820000      -0.70870000
H       -1.09350000       1.55100000       1.03110000
H       -0.87480000      -0.75170000       0.10340000
H        0.17990000      -1.03380000      -2.06170000
H        1.93450000       0.48030000      -2.93900000
H        1.70380000       1.53920000      -1.54920000
H        3.53020000      -0.90880000      -1.74620000
H        3.59860000       0.27620000      -0.43840000
H        1.96870000      -2.21090000      -0.29750000
H        2.19690000       1.37750000       1.05490000
H        1.23620000       0.93380000       2.46340000
H        2.75970000       0.08800000       2.13670000
H        0.22260000      -1.23780000       2.44270000
