19
Properties=species:S:1:pos:R:3 gdb_75417=T pbc="F F F"
C        0.00370000       1.52530000      -0.02070000
C       -0.01480000       0.01430000      -0.08040000
C       -1.17620000      -0.66200000      -0.04530000
C       -1.33330000      -2.15590000      -0.08660000
C       -0.57180000      -2.83310000      -1.23770000
C        0.92200000      -2.98640000      -0.99190000
O        1.49020000      -4.02780000      -1.26780000
C        1.70380000      -1.85890000      -0.44270000
C        1.30630000      -0.61610000      -0.10190000
H        0.50400000       1.95140000      -0.89870000
H       -1.00730000       1.93660000       0.02470000
H        0.55550000       1.87920000       0.85890000
H       -2.09320000      -0.08260000       0.03500000
H       -1.00290000      -2.59230000       0.86900000
H       -2.39610000      -2.39920000      -0.17560000
H       -0.95910000      -3.83690000      -1.42960000
H       -0.70770000      -2.24940000      -2.15870000
H        2.75940000      -2.10180000      -0.35630000
H        2.10580000       0.05430000       0.21430000
