15
Properties=species:S:1:pos:R:3 gdb_131229=T pbc="F F F"
O        0.11280000       1.34480000       0.17950000
C        0.07070000       0.01080000      -0.03030000
C        0.05580000      -0.78140000      -1.16010000
C        0.00210000      -2.09470000      -0.64000000
N       -0.01490000      -2.11980000       0.68510000
N        0.02000000      -0.80700000       1.04740000
C        0.07120000      -0.42910000       2.44890000
C        1.42800000      -0.22650000       2.95600000
C        2.53640000      -0.05260000       3.38330000
H        0.12870000       1.79250000      -0.67180000
H        0.07360000      -0.46050000      -2.18880000
H       -0.03120000      -3.02410000      -1.19020000
H       -0.51610000       0.48550000       2.57980000
H       -0.42560000      -1.23210000       2.99990000
H        3.51920000       0.09430000       3.75770000
