17
Properties=species:S:1:pos:R:3 gdb_64938=T pbc="F F F"
O        0.45850000       1.19140000       0.46790000
C        0.08080000      -0.11870000       0.13110000
C       -0.88320000      -0.83070000       1.07000000
C       -1.37540000      -0.25790000      -0.23350000
C        1.07220000      -0.89420000      -0.56590000
C        1.93980000      -1.52530000      -1.11800000
C        2.93720000      -2.28920000      -1.81290000
C        4.37250000      -1.95170000      -1.73160000
O        3.85650000      -3.07160000      -1.02690000
H        1.21350000       1.13190000       1.06430000
H       -0.79870000      -1.90630000       1.16980000
H       -1.12940000      -0.29200000       1.97790000
H       -1.94660000       0.66230000      -0.19540000
H       -1.63410000      -0.93530000      -1.03780000
H        2.59330000      -2.79930000      -2.71210000
H        5.01810000      -2.17860000      -2.57920000
H        4.67980000      -1.10790000      -1.11650000
