17
Properties=species:S:1:pos:R:3 gdb_6038=T pbc="F F F"
C       -0.12750000       1.66320000      -0.06630000
C        0.02990000       0.13680000      -0.04150000
O        0.78690000      -0.27500000       1.09470000
C       -1.33700000      -0.56770000       0.00100000
O       -1.89060000      -0.28060000       1.28390000
C        0.74370000      -0.32850000      -1.32310000
N        1.87750000      -1.03720000      -1.11360000
O        0.28230000      -0.07310000      -2.42200000
H        0.85120000       2.13580000       0.05040000
H       -0.56250000       1.97920000      -1.01690000
H       -0.77360000       1.98550000       0.75420000
H        0.15250000      -0.32900000       1.82170000
H       -1.97030000      -0.20040000      -0.81430000
H       -1.19020000      -1.64940000      -0.12610000
H       -2.64660000      -0.85560000       1.42890000
H        2.18900000      -1.20960000      -0.17290000
H        2.39760000      -1.37190000      -1.90680000
