20
Properties=species:S:1:pos:R:3 gdb_22367=T pbc="F F F"
C       -0.06050000       1.52520000       0.01140000
C        0.08680000       0.00620000       0.00170000
C        0.96230000      -0.54420000      -1.14230000
C        1.30070000      -1.98150000      -0.72560000
O        2.55800000      -2.37140000      -1.23920000
C        1.24840000      -1.93040000       0.80190000
C        0.76390000      -0.57820000       1.26290000
N        1.53760000      -2.86620000       1.61310000
O        1.94380000      -4.03260000       0.90790000
H        0.91810000       2.01160000       0.09770000
H       -0.53060000       1.88350000      -0.91030000
H       -0.67690000       1.86120000       0.85190000
H       -0.91260000      -0.44320000      -0.08370000
H        0.48140000      -0.48610000      -2.12170000
H        1.90340000       0.01700000      -1.19730000
H        0.51010000      -2.67360000      -1.06290000
H        2.76340000      -3.21870000      -0.82430000
H        1.62750000       0.04600000       1.53380000
H        0.11590000      -0.63340000       2.14080000
H        2.16420000      -4.63740000       1.62340000
