25
Properties=species:S:1:pos:R:3 gdb_81370=T pbc="F F F"
C       -0.29430000       1.68170000       0.56000000
C       -0.02260000       0.21050000       0.26010000
C        1.32080000      -0.08080000      -0.48570000
C        1.99550000      -0.19000000       0.90790000
C        0.59900000      -0.60520000       1.44200000
C        0.40720000      -2.12240000       1.23380000
C       -0.87880000      -2.64200000       1.88520000
C        0.43270000      -2.45660000      -0.28200000
C        1.28610000      -1.47760000      -1.12790000
H        0.56620000       2.17830000       1.01910000
H       -0.53860000       2.22860000      -0.35790000
H       -1.14190000       1.79050000       1.24610000
H       -0.91840000      -0.22400000      -0.19720000
H        1.69500000       0.67760000      -1.18000000
H        2.81070000      -0.91330000       1.01620000
H        2.32840000       0.77490000       1.29620000
H        0.32940000      -0.30590000       2.46030000
H        1.25550000      -2.62170000       1.72270000
H       -1.75910000      -2.12490000       1.48460000
H       -1.01340000      -3.71340000       1.69970000
H       -0.86650000      -2.48840000       2.96960000
H        0.76100000      -3.48960000      -0.43660000
H       -0.59920000      -2.41940000      -0.64920000
H        0.87430000      -1.42660000      -2.14280000
H        2.31550000      -1.84350000      -1.23000000
