20
Properties=species:S:1:pos:R:3 gdb_38066=T pbc="F F F"
C       -0.05370000       1.55460000      -0.10460000
C        1.49000000       1.54750000       0.05460000
C        1.40480000       0.09420000       0.62090000
C       -0.03430000       0.00820000       0.01330000
C        2.43790000      -0.92580000       0.21350000
C        2.97160000      -1.57440000       1.25210000
C        2.41310000      -1.04780000       2.53170000
N        2.73650000       0.39840000       2.73930000
C        1.43960000       0.00730000       2.14750000
H       -0.55220000       2.02710000       0.74660000
H       -0.46500000       1.98220000      -1.02180000
H        2.00020000       1.57080000      -0.91300000
H        1.95310000       2.28640000       0.71190000
H       -0.79890000      -0.47480000       0.62920000
H       -0.02290000      -0.47950000      -0.96580000
H        2.71420000      -1.06670000      -0.82670000
H        3.73400000      -2.34250000       1.20210000
H        2.28990000      -1.68080000       3.40410000
H        2.58070000       0.62400000       3.72130000
H        0.53160000       0.18960000       2.71430000
