20
Properties=species:S:1:pos:R:3 gdb_8087=T pbc="F F F"
C       -0.08620000       1.54080000       0.01280000
C        0.07740000       0.03910000      -0.02630000
C        0.71560000      -0.63500000      -1.26730000
C       -0.40140000      -1.66930000      -1.02370000
C       -0.00940000      -2.72820000       0.00730000
C        0.90730000      -2.08740000       1.07750000
C        0.60040000      -0.58230000       1.27870000
O       -1.17970000      -0.65250000      -0.33120000
H        0.88580000       2.03170000       0.12940000
H       -0.55090000       1.89880000      -0.91020000
H       -0.72120000       1.83900000       0.85410000
H        0.53970000      -0.05090000      -2.17260000
H        1.75880000      -0.95520000      -1.22220000
H       -0.93740000      -2.07970000      -1.88420000
H       -0.93500000      -3.10770000       0.45370000
H        0.49460000      -3.57740000      -0.46930000
H        0.83320000      -2.62570000       2.02700000
H        1.94900000      -2.19230000       0.75580000
H        1.49620000      -0.05820000       1.63280000
H       -0.18050000      -0.43880000       2.03400000
