17
Properties=species:S:1:pos:R:3 gdb_49664=T pbc="F F F"
O        0.29800000       0.16950000      -0.56210000
C        0.23240000       1.34360000      -0.28850000
N        1.23490000       2.04050000       0.36540000
C        2.65520000       1.99740000       0.15000000
C        3.17560000       1.66780000      -1.25230000
C        2.68700000       2.79700000      -2.15910000
N        1.22320000       2.89830000      -2.29820000
C        1.91870000       3.78760000      -1.35220000
C        1.87480000       3.30210000       0.08550000
H       -0.67530000       1.95760000      -0.42070000
H        3.25840000       1.71860000       1.01040000
H        4.27020000       1.66010000      -1.23580000
H        2.83060000       0.68640000      -1.58820000
H        3.30310000       3.10100000      -2.99980000
H        0.98700000       3.40330000      -3.14860000
H        1.95190000       4.85460000      -1.54050000
H        1.88230000       4.03860000       0.88360000
