17
Properties=species:S:1:pos:R:3 gdb_102046=T pbc="F F F"
C       -0.83920000       1.45620000       0.18620000
O       -0.84730000       0.09460000       0.59290000
C       -1.45830000      -0.78340000      -0.29920000
C       -0.61240000      -1.10460000      -1.54580000
O        0.42240000      -0.55390000      -1.80120000
C       -1.78960000      -2.09920000       0.40580000
O       -2.34890000      -2.99390000      -0.19180000
C       -1.37790000      -2.27190000       1.85360000
O       -1.74210000      -3.53150000       2.33260000
H       -0.41430000       2.02460000       1.01550000
H       -0.22690000       1.60460000      -0.70780000
H       -1.86200000       1.81440000      -0.00370000
H       -2.42140000      -0.39400000      -0.68140000
H       -1.05230000      -1.89710000      -2.18560000
H       -0.29100000      -2.10250000       1.91880000
H       -1.83800000      -1.46200000       2.44000000
H       -2.15790000      -3.98840000       1.58520000
