17
Properties=species:S:1:pos:R:3 gdb_80015=T pbc="F F F"
O        0.12450000       1.38290000      -0.10570000
C        0.03990000      -0.01100000      -0.01550000
C        0.41230000      -0.63030000       1.37070000
C       -0.77980000      -0.12750000       2.19470000
C       -1.85280000      -0.11450000       1.39080000
C       -1.40450000      -0.60820000       0.00950000
C       -1.08360000      -2.10620000       0.23240000
O        0.19050000      -2.56150000      -0.25780000
C        0.08490000      -2.12040000       1.10790000
H       -0.40880000       1.74860000       0.61210000
H        0.64370000      -0.40780000      -0.82770000
H        1.40620000      -0.40880000       1.75810000
H       -0.74690000       0.11250000       3.24960000
H       -2.87060000       0.13840000       1.65840000
H       -2.05190000      -0.36670000      -0.83290000
H       -1.87350000      -2.85090000       0.25890000
H        0.26960000      -2.87700000       1.86470000
