13
Properties=species:S:1:pos:R:3 gdb_44871=T pbc="F F F"
O       -0.02090000       0.02120000       0.03150000
C        0.01350000       1.21120000       0.01280000
O       -1.09610000       2.02580000       0.03770000
C       -0.55310000       3.37320000       0.04860000
O        0.60730000       3.27890000      -0.73260000
C        1.20080000       2.20210000      -0.00090000
C        1.20850000       2.75140000       1.44620000
O        1.27950000       4.17260000       1.51090000
C       -0.00900000       3.56400000       1.48030000
H       -1.27600000       4.06790000      -0.37010000
H        2.12290000       1.85390000      -0.45550000
H        1.59850000       2.17760000       2.27850000
H       -0.66110000       3.68510000       2.33720000
