17
Properties=species:S:1:pos:R:3 gdb_131495=T pbc="F F F"
O        0.10700000       1.40070000       0.61380000
C        0.04810000       0.09570000       0.12280000
C       -0.53490000      -1.00060000       0.99000000
C       -1.30720000      -0.47050000      -0.19910000
N       -2.52590000       0.26520000      -0.05360000
C       -2.86080000       1.26250000       0.80700000
C       -4.17810000       1.58180000       0.55250000
C       -4.55770000       0.71290000      -0.48890000
N       -3.56000000      -0.08650000      -0.85460000
H        0.82560000       1.44480000       1.25360000
H        0.85280000      -0.16900000      -0.56300000
H       -0.12730000      -2.00450000       0.94390000
H       -0.89020000      -0.68990000       1.96700000
H       -1.38210000      -1.10150000      -1.07460000
H       -2.13760000       1.67380000       1.48850000
H       -4.76860000       2.33820000       1.04350000
H       -5.51180000       0.63420000      -0.98920000
