17
Properties=species:S:1:pos:R:3 gdb_51198=T pbc="F F F"
N       -0.18630000       1.19390000      -0.10900000
C       -0.52510000       0.00440000      -0.35500000
O       -0.28800000      -0.94690000       0.59210000
C       -0.66260000      -2.24860000       0.31390000
C       -0.44920000      -3.40100000       1.29430000
C       -1.12050000      -4.06100000       0.07000000
C       -2.02990000      -2.81870000      -0.21450000
N       -1.61470000      -2.66080000      -1.64980000
C       -0.37340000      -3.13820000      -0.95060000
H       -0.42470000       1.78570000      -0.90290000
H       -1.00170000      -0.38830000      -1.25760000
H        0.58800000      -3.68000000       1.49660000
H       -1.03370000      -3.36730000       2.21720000
H       -1.39340000      -5.10130000      -0.09260000
H       -3.03680000      -2.61530000       0.15120000
H       -2.01160000      -3.41640000      -2.21510000
H        0.57750000      -3.31240000      -1.45480000
