17
Properties=species:S:1:pos:R:3 gdb_45447=T pbc="F F F"
N        0.00080000       1.28890000      -0.37520000
C        0.03010000       0.05560000      -0.05790000
N       -1.03180000      -0.81830000      -0.08090000
C       -1.89080000      -1.03090000      -1.27100000
C       -1.29480000      -2.46200000      -1.42200000
C       -0.59520000      -2.24200000      -0.04950000
C        0.93010000      -2.23920000       0.11160000
C        1.27760000      -0.75620000       0.29070000
O        2.34580000      -0.28030000       0.56690000
H        0.94520000       1.66750000      -0.26650000
H       -2.95600000      -1.00100000      -1.02620000
H       -1.68580000      -0.31550000      -2.07130000
H       -2.00390000      -3.28960000      -1.47700000
H       -0.58820000      -2.54030000      -2.25240000
H       -1.08410000      -2.78930000       0.76290000
H        1.29650000      -2.82640000       0.95680000
H        1.44470000      -2.60450000      -0.78460000
