16
Properties=species:S:1:pos:R:3 gdb_45899=T pbc="F F F"
O        0.00580000      -0.00350000       0.29000000
C       -0.01340000       1.17990000       0.06770000
C       -1.38090000       1.91480000      -0.03710000
N       -1.92040000       1.96700000      -1.40230000
C       -1.26600000       2.58680000      -2.29290000
N       -0.07250000       3.33200000      -2.06250000
C        1.13390000       2.61960000      -2.32630000
N        1.82970000       2.01830000      -1.45450000
C        1.33000000       1.95190000      -0.07490000
H       -2.07700000       1.33120000       0.56770000
H       -1.31090000       2.91680000       0.41200000
H       -1.61320000       2.56880000      -3.32480000
H       -0.06290000       3.62070000      -1.08940000
H        1.45270000       2.61070000      -3.36750000
H        1.24510000       2.95180000       0.37640000
H        2.05830000       1.38770000       0.51020000
