12
Properties=species:S:1:pos:R:3 gdb_5498=T pbc="F F F"
N        0.06360000       1.38870000       0.15920000
C        0.01310000       0.00680000       0.04110000
C       -1.06300000      -0.82890000       0.01480000
O       -0.64740000      -2.13990000      -0.02710000
C        0.68820000      -2.14320000      -0.03100000
C        1.17110000      -0.86250000       0.00880000
C        2.52020000      -0.44210000       0.00500000
N        3.61000000      -0.04820000      -0.00630000
H        0.91300000       1.79960000      -0.20380000
H       -0.75180000       1.87230000      -0.18830000
H       -2.12700000      -0.67210000       0.02870000
H        1.17840000      -3.10170000      -0.06770000
