23
Properties=species:S:1:pos:R:3 gdb_79182=T pbc="F F F"
C       -0.22830000       1.59440000      -0.07480000
C        0.02520000       0.08220000      -0.00130000
C        0.72090000      -0.48260000      -1.24230000
C        2.17220000      -0.12540000      -1.54220000
C        2.91540000       0.32740000      -0.28580000
C        2.24050000      -0.85480000       0.48550000
C        1.80970000      -1.44970000      -0.88570000
C        0.92760000      -0.44150000       1.17660000
C        1.09710000       0.48750000       2.37970000
H        0.69490000       2.16770000      -0.19400000
H       -0.86550000       1.82340000      -0.93610000
H       -0.74200000       1.96320000       0.81880000
H       -0.95740000      -0.39880000       0.08480000
H        0.12180000      -0.68610000      -2.12460000
H        2.49050000       0.05250000      -2.56330000
H        3.99140000       0.16130000      -0.39070000
H        2.75860000       1.34510000       0.08660000
H        2.90470000      -1.44450000       1.11920000
H        1.91000000      -2.46730000      -1.23930000
H        0.46360000      -1.36910000       1.53890000
H        1.57100000       1.43540000       2.10760000
H        0.13280000       0.72170000       2.84310000
H        1.72170000       0.01410000       3.14510000
