20
Properties=species:S:1:pos:R:3 gdb_6130=T pbc="F F F"
C       -0.61100000       1.56190000       0.00880000
C       -0.05440000       0.14190000       0.01000000
C       -1.15800000      -0.88210000      -0.27380000
C        1.21560000      -0.10390000      -0.86980000
C        1.86010000      -0.88360000       0.30900000
O        3.19530000      -0.62270000       0.65070000
C        0.77940000      -0.27620000       1.26270000
O        1.29430000       0.86400000       1.93900000
H        0.16000000       2.29090000       0.26650000
H       -1.00620000       1.81180000      -0.98240000
H       -1.42760000       1.67040000       0.73140000
H       -1.60770000      -0.70110000      -1.25630000
H       -0.77760000      -1.90940000      -0.26980000
H       -1.95410000      -0.81880000       0.47680000
H        1.07640000      -0.63960000      -1.81260000
H        1.76110000       0.82310000      -1.07080000
H        1.76760000      -1.96700000       0.20050000
H        3.21570000       0.30660000       0.91450000
H        0.28400000      -0.95430000       1.96970000
H        1.77600000       0.54680000       2.71000000
