17
Properties=species:S:1:pos:R:3 gdb_77108=T pbc="F F F"
O        0.30230000       0.86300000      -0.60590000
C       -0.05480000      -0.40410000      -0.13980000
C       -0.04090000      -0.68190000       1.41290000
C       -1.41720000      -1.41010000       1.24500000
C       -1.55290000      -0.69320000      -0.10010000
C       -2.59260000       0.26610000      -0.52830000
N       -2.43990000      -1.04810000      -1.19000000
C        1.08130000      -1.41630000       1.96150000
N        1.98820000      -2.01150000       2.36360000
H        1.24930000       0.88200000      -0.77800000
H        0.49000000      -1.20410000      -0.66070000
H       -0.16510000       0.26850000       1.93790000
H       -1.29830000      -2.49030000       1.13300000
H       -2.16690000      -1.20390000       2.00930000
H       -3.50120000       0.37730000       0.05750000
H       -2.26290000       1.15800000      -1.05250000
H       -1.96660000      -0.93780000      -2.08450000
