19
Properties=species:S:1:pos:R:3 gdb_39758=T pbc="F F F"
C       -0.00460000       1.52000000       0.02540000
C        1.32380000       0.76430000       0.01100000
C        0.02600000       0.03130000      -0.00470000
C       -0.56990000      -1.02360000       0.92700000
C       -1.81450000      -1.12360000      -0.02920000
C       -2.22040000      -2.59050000      -0.05910000
O       -0.93080000      -3.22960000      -0.07120000
C       -0.04820000      -2.12640000      -0.04830000
C       -0.56860000      -0.98520000      -0.97900000
H       -0.28950000       2.01980000       0.94610000
H       -0.28820000       2.05660000      -0.87490000
H        1.91510000       0.80220000      -0.89870000
H        1.91380000       0.76540000       0.92250000
H       -0.57470000      -1.04760000       2.01760000
H       -2.58140000      -0.35020000      -0.01420000
H       -2.78720000      -2.90470000       0.82620000
H       -2.78600000      -2.86870000      -0.95720000
H        0.99020000      -2.45210000      -0.05420000
H       -0.57190000      -0.96510000      -2.06960000
