16
Properties=species:S:1:pos:R:3 gdb_128111=T pbc="F F F"
C       -0.06110000       1.46740000       0.09830000
N       -0.01940000       0.03870000      -0.15310000
C       -1.14170000      -0.73430000      -0.05320000
C       -1.29920000      -2.13050000      -0.00440000
C       -0.26850000      -3.13910000      -0.00120000
O       -0.45450000      -4.33910000       0.04480000
C       -2.71140000      -2.31340000       0.04280000
N       -3.37480000      -1.17900000       0.02760000
N       -2.39060000      -0.21890000      -0.02650000
H        0.94850000       1.87030000       0.00650000
H       -0.68130000       1.97040000      -0.65280000
H       -0.44770000       1.71950000       1.09690000
H        0.83760000      -0.43020000       0.09070000
H        0.77560000      -2.73900000      -0.04600000
H       -3.23590000      -3.25610000       0.08680000
H       -2.66210000       0.74810000      -0.05430000
