17
Properties=species:S:1:pos:R:3 gdb_2090=T pbc="F F F"
C       -0.01210000       1.52290000       0.06150000
C        0.02860000       0.00500000      -0.01990000
C        0.76230000      -0.51890000      -1.26180000
C        1.04500000      -1.99210000      -1.12580000
C        0.95990000      -2.60880000       0.04980000
C        0.62540000      -1.86290000       1.31200000
O        0.67500000      -0.45860000       1.16210000
H        1.00380000       1.92570000       0.12160000
H       -0.50140000       1.94360000      -0.82240000
H       -0.56050000       1.84430000       0.95090000
H       -1.00290000      -0.38870000      -0.03990000
H        0.15280000      -0.32890000      -2.15490000
H        1.69820000       0.04040000      -1.40520000
H        1.31340000      -2.54430000      -2.02260000
H        1.12930000      -3.67820000       0.14440000
H       -0.36870000      -2.17950000       1.68160000
H        1.34440000      -2.10890000       2.10320000
