15
Properties=species:S:1:pos:R:3 gdb_75673=T pbc="F F F"
O       -0.10260000       1.49220000      -0.06480000
C       -0.02640000       0.09150000       0.00500000
C        0.22580000      -0.59480000       1.38280000
O        1.18990000      -0.63880000       2.09440000
C       -1.10040000      -1.28240000       1.36570000
C       -2.18140000      -0.23570000       1.15850000
C       -1.38370000      -0.62970000      -0.04410000
C       -1.93110000      -1.25920000      -1.19520000
C       -2.37930000      -1.78450000      -2.18040000
H        0.75360000       1.84600000       0.20120000
H        0.66950000      -0.32850000      -0.73680000
H       -1.33380000      -2.28180000       1.70980000
H       -3.19050000      -0.62980000       1.19740000
H       -2.06250000       0.76270000       1.56410000
H       -2.77790000      -2.24660000      -3.04940000
