15
Properties=species:S:1:pos:R:3 gdb_19029=T pbc="F F F"
N       -0.06670000       1.28170000      -0.16430000
C       -0.01380000       0.03340000       0.01910000
O        1.14070000      -0.70420000       0.14550000
C        0.76710000      -2.04700000       0.48890000
C        0.12630000      -2.06430000       1.90910000
C       -1.23160000      -1.92870000       1.22210000
C       -0.63910000      -2.29860000      -0.12140000
C       -1.16700000      -0.90610000       0.07820000
H        0.87470000       1.67710000      -0.19840000
H        1.60340000      -2.70630000       0.27030000
H        0.23230000      -3.04470000       2.38110000
H        0.45890000      -1.28060000       2.59640000
H       -2.19630000      -2.19880000       1.63300000
H       -0.94220000      -2.99720000      -0.88860000
H       -2.10730000      -0.59220000      -0.35270000
