15
Properties=species:S:1:pos:R:3 gdb_27239=T pbc="F F F"
O        0.09810000       1.32420000       0.23610000
C       -0.04040000      -0.00490000       0.14650000
C       -1.08210000      -0.83350000       0.13370000
C       -2.45300000      -1.26560000      -0.34100000
C       -1.75540000      -2.63850000      -0.67560000
N       -0.56560000      -2.15430000       0.07020000
C        0.79320000      -2.10090000      -0.14830000
N        1.58800000      -3.03040000      -0.46570000
O        1.13590000      -0.75740000       0.10700000
H        0.93330000       1.57060000      -0.18120000
H       -3.21210000      -1.34370000       0.44100000
H       -2.86260000      -0.71680000      -1.18980000
H       -2.20320000      -3.53960000      -0.25410000
H       -1.55450000      -2.78100000      -1.74160000
H        2.54150000      -2.68620000      -0.54280000
