16
Properties=species:S:1:pos:R:3 gdb_73074=T pbc="F F F"
O       -0.14630000       1.41370000      -0.43100000
C        0.00810000       0.10230000      -0.04620000
C        0.67560000      -0.98590000      -0.89070000
O       -0.32020000      -1.96380000      -0.47090000
C       -1.02320000      -0.97500000       0.26760000
C       -0.15060000      -0.39870000       1.35950000
O        0.88650000      -1.10600000       1.97940000
C        0.58040000      -2.32650000       2.48810000
N        1.45980000      -2.96800000       3.12220000
H        0.51270000       1.94890000       0.02590000
H        0.59000000      -0.79060000      -1.96370000
H        1.69230000      -1.28630000      -0.62220000
H       -2.10630000      -1.01150000       0.28520000
H       -0.66970000       0.30240000       2.01210000
H       -0.44930000      -2.63610000       2.27850000
H        1.08310000      -3.86420000       3.42420000
