19
Properties=species:S:1:pos:R:3 gdb_43170=T pbc="F F F"
O        0.00020000       0.04260000      -0.01170000
C       -0.01520000       1.24530000       0.03100000
C       -1.21790000       2.18260000       0.04610000
C       -0.81090000       3.23230000       1.10230000
C        0.75700000       3.25320000       1.08020000
C        1.16200000       2.21440000       0.01270000
C        1.12660000       2.84710000      -1.40610000
O       -0.06940000       3.57860000      -1.61120000
C       -1.23930000       2.81550000      -1.37280000
H       -2.15900000       1.66520000       0.24020000
H       -1.22830000       4.21550000       0.87230000
H       -1.18130000       2.93910000       2.08810000
H        1.14150000       4.24710000       0.83890000
H        1.16270000       2.97040000       2.05510000
H        2.12160000       1.72230000       0.18000000
H        1.94500000       3.56360000      -1.52490000
H        1.24130000       2.05840000      -2.16700000
H       -1.35430000       2.02380000      -2.13050000
H       -2.07950000       3.50990000      -1.46830000
