20
Properties=species:S:1:pos:R:3 gdb_114526=T pbc="F F F"
C        0.00210000       1.58540000       0.29810000
O        0.47600000       0.31000000      -0.07020000
C        0.81920000      -0.48280000       1.03210000
C       -0.34940000      -1.17960000       1.79490000
N        0.10520000      -2.53330000       1.34910000
C       -0.42790000      -2.88520000      -0.01270000
C        0.96270000      -2.60040000      -0.64190000
O        1.07300000      -1.85910000      -1.82620000
C        1.32800000      -1.90660000       0.68320000
H        0.75670000       2.14730000       0.87140000
H       -0.21890000       2.12700000      -0.62430000
H       -0.91570000       1.52900000       0.90350000
H        1.51010000       0.06570000       1.69180000
H       -0.30030000      -1.08280000       2.88430000
H       -1.35550000      -0.90870000       1.45800000
H       -0.81230000      -3.90760000      -0.07930000
H       -1.18680000      -2.18500000      -0.37970000
H        1.54450000      -3.53090000      -0.70530000
H        1.01020000      -2.46870000      -2.56780000
H        2.30920000      -2.14370000       1.10380000
