20
Properties=species:S:1:pos:R:3 gdb_107504=T pbc="F F F"
C        0.06500000       1.50400000      -0.23550000
C       -0.09120000      -0.00550000      -0.00290000
C        0.62930000      -0.46810000       1.23220000
C        2.11480000      -0.86240000       1.28600000
C        1.07560000      -1.81420000       1.76120000
O        0.68960000      -1.46580000       3.11560000
C        0.18850000      -0.24090000       2.64500000
N       -0.46330000       0.64750000       3.23450000
C       -0.77110000       0.48570000       4.64880000
H        1.11690000       1.77340000      -0.37570000
H       -0.48780000       1.82030000      -1.12520000
H       -0.31500000       2.06150000       0.62480000
H       -1.15540000      -0.25300000       0.09060000
H        0.28610000      -0.56240000      -0.86910000
H        2.54280000      -1.07250000       0.30950000
H        2.79270000      -0.40970000       2.00310000
H        0.88740000      -2.82830000       1.43580000
H       -0.27460000       1.28020000       5.21720000
H       -1.84880000       0.61380000       4.79590000
H       -0.46920000      -0.48310000       5.06300000
