17
Properties=species:S:1:pos:R:3 gdb_86759=T pbc="F F F"
C       -0.08230000       1.35650000       0.15200000
N        0.02270000      -0.03190000      -0.26150000
C       -1.13480000      -0.89280000      -0.00750000
C       -0.47560000      -2.30750000      -0.00470000
N        0.96530000      -2.08050000       0.15830000
C        1.14060000      -0.81280000       0.02120000
N        2.36940000      -0.20620000       0.15030000
C       -1.02790000      -3.17390000       1.04460000
N       -1.49010000      -3.84450000       1.86410000
H        0.83600000       1.89880000      -0.07930000
H       -0.89750000       1.83740000      -0.39640000
H       -0.28120000       1.46010000       1.23020000
H       -1.58590000      -0.66120000       0.96800000
H       -1.90180000      -0.78120000      -0.77840000
H       -0.65700000      -2.81150000      -0.96450000
H        3.12110000      -0.88130000       0.15850000
H        2.54480000       0.56570000      -0.47630000
