16
Properties=species:S:1:pos:R:3 gdb_69220=T pbc="F F F"
C       -0.05510000       1.53350000      -0.00020000
C        0.10590000       0.04020000      -0.00020000
N       -0.75300000      -0.83790000       0.83360000
C        0.71270000      -0.77920000       1.08270000
C        1.40760000      -1.94860000       0.42920000
O        2.08940000      -2.80510000       0.93170000
N        1.12210000      -1.83130000      -0.93040000
C        0.44190000      -0.66580000      -1.29100000
N        0.16030000      -0.20920000      -2.43940000
H        0.84450000       2.02270000      -0.38410000
H       -0.88920000       1.82320000      -0.64480000
H       -0.24470000       1.90250000       1.01260000
H       -1.21200000      -0.25430000       1.53280000
H        1.10060000      -0.37940000       2.01080000
H        1.42240000      -2.53440000      -1.58900000
H        0.47660000      -0.82690000      -3.18910000
