21
Properties=species:S:1:pos:R:3 gdb_73145=T pbc="F F F"
C        0.24910000       1.61550000       0.04160000
C        0.04290000       0.11830000       0.07930000
C       -1.40640000      -0.44360000      -0.01070000
C       -1.13170000      -1.37720000       1.20640000
C        0.30600000      -0.80800000       1.33790000
C        1.39430000      -1.58510000       0.54870000
C        1.06170000      -0.74460000      -0.68890000
C        1.11960000      -1.07010000      -2.11520000
O        2.07200000      -0.18160000      -1.51230000
H        1.28940000       1.88240000       0.25170000
H        0.00310000       2.01920000      -0.94770000
H       -0.39100000       2.11710000       0.77560000
H       -2.16390000       0.31750000       0.19660000
H       -1.66680000      -0.93310000      -0.95370000
H       -1.76960000      -1.16800000       2.06830000
H       -1.18380000      -2.45100000       1.00310000
H        0.59720000      -0.41060000       2.31080000
H        2.40950000      -1.37940000       0.90000000
H        1.26360000      -2.66860000       0.46780000
H        1.51880000      -2.03130000      -2.43790000
H        0.42190000      -0.60220000      -2.80970000
