19
Properties=species:S:1:pos:R:3 gdb_59916=T pbc="F F F"
C        0.65530000       1.13560000       0.28230000
C        0.09050000      -0.27520000       0.41210000
O       -0.40640000      -0.50080000       1.74580000
C       -0.99260000      -0.56670000      -0.64200000
C       -1.39900000      -2.02210000      -0.78290000
N       -1.47620000      -2.55160000      -1.93390000
N       -1.67900000      -2.65120000       0.45080000
C       -2.10320000      -3.94040000       0.63130000
O       -2.35400000      -4.74110000      -0.24370000
H        1.38590000       1.32570000       1.07310000
H        1.14530000       1.27310000      -0.68580000
H       -0.14300000       1.88470000       0.36010000
H        0.90340000      -1.00200000       0.30500000
H       -0.99010000       0.23480000       1.96630000
H       -1.87980000       0.03540000      -0.39490000
H       -0.65450000      -0.24990000      -1.63060000
H       -1.78670000      -3.52150000      -1.86000000
H       -1.45370000      -2.10450000       1.27690000
H       -2.20280000      -4.18400000       1.70690000
