16
Properties=species:S:1:pos:R:3 gdb_7411=T pbc="F F F"
C       -1.05120000       1.37780000      -1.24350000
C       -0.21250000       0.50300000      -0.28560000
C       -1.11230000      -0.55430000       0.35120000
N       -1.32890000      -0.41100000       1.68350000
O       -1.62870000      -1.45700000      -0.29430000
C        0.98810000      -0.09640000      -1.05120000
N        0.69290000      -1.16820000      -1.82760000
O        2.08450000       0.42660000      -0.98820000
H       -0.40650000       2.10760000      -1.73950000
H       -1.53320000       0.75690000      -2.00170000
H       -1.82840000       1.91810000      -0.69450000
H        0.23720000       1.13940000       0.48030000
H       -0.87610000       0.30080000       2.22850000
H       -1.91460000      -1.08520000       2.14950000
H       -0.19400000      -1.63840000      -1.69840000
H        1.45160000      -1.62240000      -2.30920000
