16
Properties=species:S:1:pos:R:3 gdb_12627=T pbc="F F F"
C       -0.27310000       1.57320000      -0.03740000
C        0.06720000       0.07930000      -0.02320000
C        0.79970000      -0.45400000      -1.23730000
C        1.85250000      -1.21540000      -0.92980000
C        1.99650000      -1.40290000       0.55830000
O        3.30530000      -1.25560000       1.05480000
C        1.05500000      -0.30570000       1.08490000
O        1.19750000       0.22660000       2.15630000
H        0.61950000       2.17330000      -0.23750000
H       -1.01580000       1.79550000      -0.80900000
H       -0.67520000       1.87880000       0.93170000
H       -0.86060000      -0.49050000       0.14630000
H        0.47460000      -0.22000000      -2.24530000
H        2.51920000      -1.69490000      -1.63610000
H        1.58280000      -2.38560000       0.85740000
H        3.21570000      -0.78730000       1.89700000
