20
Properties=species:S:1:pos:R:3 gdb_69374=T pbc="F F F"
C        0.10910000       1.41640000      -0.28130000
C        0.12110000      -0.05050000      -0.00420000
C       -0.82540000      -0.80660000       0.87790000
C        0.67190000      -0.93270000       1.09290000
C        1.24210000      -1.78480000      -0.04120000
O        0.62200000      -0.92110000      -1.04030000
C        2.74460000      -1.81760000      -0.17630000
C        3.36750000      -1.81540000      -1.51990000
N        3.48710000      -0.63870000      -0.63530000
H        1.10640000       1.78710000      -0.54010000
H       -0.56510000       1.64160000      -1.11540000
H       -0.24460000       1.96530000       0.59600000
H       -1.34550000      -0.21290000       1.62360000
H       -1.39320000      -1.64170000       0.47550000
H        1.17420000      -0.68680000       2.01910000
H        0.84350000      -2.80710000      -0.10220000
H        3.23330000      -2.36800000       0.62690000
H        4.29070000      -2.36020000      -1.69400000
H        2.70230000      -1.73880000      -2.37510000
H        2.81020000       0.05160000      -0.95590000
