19
Properties=species:S:1:pos:R:3 gdb_32900=T pbc="F F F"
C        0.22080000       1.36230000      -0.20620000
C       -0.04600000      -0.08670000      -0.00990000
C       -1.15260000      -0.80110000       0.32700000
C       -0.75680000      -2.17950000       0.35610000
C        0.56430000      -2.21210000       0.03710000
C        1.56160000      -3.30570000      -0.11320000
C        2.05730000      -3.47560000      -1.55220000
O        3.00750000      -4.52920000      -1.55060000
O        1.00910000      -0.93640000      -0.19030000
H        0.98540000       1.73020000       0.48790000
H        0.57430000       1.57420000      -1.22190000
H       -0.69520000       1.93310000      -0.03810000
H       -2.13140000      -0.39620000       0.53300000
H       -1.37430000      -3.03360000       0.58800000
H        2.43390000      -3.12460000       0.52700000
H        1.10870000      -4.24450000       0.21930000
H        1.20270000      -3.70130000      -2.20890000
H        2.50100000      -2.53040000      -1.89850000
H        3.34290000      -4.63310000      -2.44560000
