15
Properties=species:S:1:pos:R:3 gdb_8250=T pbc="F F F"
O        0.10410000       0.06250000       0.33880000
C        0.02540000       1.21540000       0.03640000
C       -1.15110000       2.19740000      -0.11650000
C       -0.15690000       3.20210000      -0.77920000
C       -0.14680000       4.61970000      -0.19440000
C        0.91970000       5.44780000      -0.75610000
N        1.77050000       6.08270000      -1.21240000
C        1.04500000       2.27330000      -0.41750000
H       -1.99350000       1.84560000      -0.71690000
H       -1.53470000       2.52910000       0.85550000
H       -0.30370000       3.25710000      -1.85990000
H       -1.10740000       5.11450000      -0.37940000
H       -0.01780000       4.57870000       0.89430000
H        1.65500000       2.64130000       0.41550000
H        1.71700000       1.97570000      -1.22560000
