21
Properties=species:S:1:pos:R:3 gdb_119682=T pbc="F F F"
C       -0.06590000       1.57340000       0.11120000
C       -0.03090000       0.04430000       0.16600000
C       -1.38560000      -0.59900000      -0.16900000
C       -1.35650000      -2.09920000      -0.12360000
C       -0.58790000      -3.07220000      -1.02720000
C       -1.44040000      -4.17440000      -0.35230000
O       -0.95790000      -4.18730000       1.02300000
C       -1.59760000      -2.91950000       1.16210000
C       -2.52160000      -3.08610000       0.00410000
H        0.91230000       2.00340000       0.34750000
H       -0.35370000       1.92810000      -0.88480000
H       -0.78950000       1.97980000       0.82690000
H        0.72760000      -0.33120000      -0.53230000
H        0.28580000      -0.28610000       1.16300000
H       -2.14730000      -0.23040000       0.53260000
H       -1.70950000      -0.26510000      -1.16510000
H       -0.86080000      -2.93310000      -2.07740000
H        0.49770000      -3.16640000      -0.91940000
H       -1.58450000      -5.16720000      -0.77290000
H       -1.72860000      -2.49780000       2.15050000
H       -3.59110000      -2.99500000      -0.12820000
