18
Properties=species:S:1:pos:R:3 gdb_105657=T pbc="F F F"
N       -0.08530000       1.43360000      -0.31210000
C       -0.01420000       0.03430000       0.10270000
C       -1.41860000      -0.56920000       0.05620000
N       -2.05960000      -0.50550000      -1.28770000
C       -2.61140000      -1.87510000      -1.13810000
C       -1.57600000      -2.14800000      -0.01940000
O       -0.43080000      -2.85530000      -0.40170000
C       -2.26990000      -0.01980000       1.11920000
N       -2.97810000       0.37240000       1.94540000
H        0.80180000       1.89510000      -0.14360000
H       -0.25250000       1.47480000      -1.31310000
H        0.64330000      -0.59290000      -0.51660000
H        0.36310000      -0.01500000       1.12940000
H       -2.73950000       0.23800000      -1.40480000
H       -3.64410000      -1.91630000      -0.77090000
H       -2.52390000      -2.49960000      -2.03350000
H       -1.94320000      -2.61630000       0.89300000
H       -0.17750000      -2.57130000      -1.28740000
