19
Properties=species:S:1:pos:R:3 gdb_54211=T pbc="F F F"
C       -0.41410000       1.63420000      -0.22220000
C        0.06370000       0.23480000       0.08930000
O        0.31560000      -0.13360000       1.21480000
C        0.23100000      -0.74630000      -1.07910000
O       -0.12650000      -0.06790000      -2.27870000
C        1.68580000      -1.29650000      -1.17480000
C        1.48280000      -2.71480000      -1.65430000
C        0.21940000      -3.11130000      -1.50210000
C       -0.63860000      -2.02620000      -0.89480000
H        0.27000000       2.11770000      -0.92660000
H       -1.38490000       1.59710000      -0.72630000
H       -0.48260000       2.20780000       0.70250000
H       -0.01750000      -0.69380000      -3.00320000
H        2.28020000      -0.67160000      -1.84980000
H        2.17160000      -1.28210000      -0.19190000
H        2.29490000      -3.32770000      -2.02870000
H       -0.16310000      -4.09930000      -1.73260000
H       -0.82130000      -2.22160000       0.16860000
H       -1.61080000      -1.89300000      -1.38130000
