21
Properties=species:S:1:pos:R:3 gdb_73253=T pbc="F F F"
C       -0.02060000       1.54620000      -0.02300000
C       -0.03030000       0.02020000       0.01160000
C       -1.34320000      -0.67390000       0.52250000
C       -0.47800000      -1.67770000       1.33030000
C        0.70810000      -0.68270000       1.18960000
O        2.02350000      -1.13100000       0.97760000
C        2.21020000      -1.91810000      -0.18410000
C        1.42870000      -1.44670000      -1.37680000
C        0.43030000      -0.57030000      -1.29050000
H        0.99290000       1.92680000      -0.18860000
H       -0.65570000       1.92900000      -0.83080000
H       -0.39190000       1.96310000       0.91960000
H       -1.91850000      -0.00520000       1.16950000
H       -2.01070000      -1.08620000      -0.23730000
H       -0.79810000      -1.93030000       2.34300000
H       -0.30690000      -2.60210000       0.77440000
H        0.76870000      -0.02450000       2.06130000
H        3.28560000      -1.88470000      -0.39720000
H        1.97040000      -2.97730000       0.02140000
H        1.71390000      -1.87670000      -2.33380000
H       -0.10580000      -0.25800000      -2.18570000
