15
Properties=species:S:1:pos:R:3 gdb_32306=T pbc="F F F"
C        0.05790000       1.39270000       0.00700000
O       -0.01320000      -0.02260000       0.00330000
C       -1.23610000      -0.58520000       0.01130000
C       -2.43840000       0.06430000       0.02280000
N       -3.66000000      -0.57180000       0.03030000
C       -3.63810000      -1.86170000       0.02570000
N       -2.48920000      -2.59510000       0.01450000
C       -1.19500000      -2.05190000       0.00670000
O       -0.20890000      -2.75890000      -0.00440000
H        1.11940000       1.64190000      -0.00050000
H       -0.42470000       1.81940000      -0.88160000
H       -0.41070000       1.81400000       0.90570000
H       -2.48760000       1.14700000       0.02650000
H       -4.56510000      -2.42790000       0.03090000
H       -2.52360000      -3.60640000       0.01120000
