20
Properties=species:S:1:pos:R:3 gdb_111602=T pbc="F F F"
O        0.63210000       0.07930000       1.44450000
C        0.16510000       0.08190000       0.10060000
C       -1.20980000      -0.55710000      -0.01980000
C       -2.00200000      -0.65580000      -1.34860000
C       -1.02930000      -1.38530000      -2.29950000
C       -1.02900000      -2.68480000      -1.46630000
C       -2.52330000      -3.04020000      -1.56460000
N       -2.79110000      -1.83290000      -0.70970000
C       -1.42890000      -2.07370000      -0.05530000
H        0.72090000      -0.83810000       1.72190000
H        0.11150000       1.13740000      -0.18990000
H        0.89640000      -0.40040000      -0.56370000
H       -1.86070000      -0.14230000       0.75610000
H       -2.59560000       0.17360000      -1.73090000
H       -1.42920000      -1.54020000      -3.30540000
H       -0.06130000      -0.88980000      -2.39180000
H       -0.22390000      -3.40610000      -1.61270000
H       -2.99680000      -3.05780000      -2.55200000
H       -2.81670000      -3.92820000      -0.99710000
H       -1.39490000      -2.72740000       0.81860000
