16
Properties=species:S:1:pos:R:3 gdb_47680=T pbc="F F F"
N        0.15600000       0.64590000       1.10610000
C       -0.10130000       0.04970000       0.03150000
C       -1.48470000      -0.46830000      -0.30110000
C       -1.54780000      -1.41000000      -1.50660000
C       -0.67070000      -2.64330000      -1.31820000
O        0.64400000      -2.29900000      -0.83060000
C        1.25930000      -1.25930000      -1.45410000
O        2.11330000      -1.36060000      -2.27570000
O        0.86510000      -0.04010000      -0.98870000
H        1.12790000       0.95880000       1.12760000
H       -1.87640000      -0.94830000       0.60070000
H       -2.12130000       0.40450000      -0.48400000
H       -2.57970000      -1.73690000      -1.67020000
H       -1.24640000      -0.87370000      -2.41370000
H       -1.07550000      -3.30800000      -0.55130000
H       -0.56740000      -3.20660000      -2.25270000
