15
Properties=species:S:1:pos:R:3 gdb_30039=T pbc="F F F"
O        0.13490000       1.40320000      -0.18820000
C        0.02550000       0.00100000      -0.03440000
C        0.61450000      -0.55550000       1.26680000
C       -0.29250000      -1.29790000       1.90970000
N       -1.49850000      -1.30990000       1.17490000
C       -2.78550000      -1.78910000       1.22110000
C       -3.38150000      -1.27880000       0.09010000
N       -2.49890000      -0.50530000      -0.64340000
C       -1.38360000      -0.54990000       0.04120000
H       -0.46180000       1.81540000       0.44660000
H        0.55920000      -0.42010000      -0.89560000
H        1.62530000      -0.35770000       1.58990000
H       -0.21920000      -1.84080000       2.84080000
H       -3.14600000      -2.42610000       2.01100000
H       -4.39930000      -1.42580000      -0.23810000
