19
Properties=species:S:1:pos:R:3 gdb_68349=T pbc="F F F"
C       -0.06670000       1.52990000       0.02710000
C        0.02130000       0.01770000       0.01540000
C        1.06730000      -0.69660000      -0.90850000
C        1.09590000      -1.83120000       0.16220000
C        0.71560000      -0.73330000       1.20360000
C       -0.10700000      -2.71540000      -0.05350000
C       -1.29860000      -2.13210000      -0.24180000
C       -1.34500000      -0.64810000      -0.22370000
O       -2.36670000      -0.01190000      -0.38270000
H        0.91980000       1.97240000       0.19910000
H       -0.45740000       1.90550000      -0.92310000
H       -0.74620000       1.87530000       0.81170000
H        0.76580000      -0.96780000      -1.92320000
H        2.00440000      -0.13280000      -0.93580000
H        2.01770000      -2.39590000       0.30580000
H        1.59010000      -0.17610000       1.55210000
H        0.10320000      -1.03710000       2.05610000
H        0.01110000      -3.79500000      -0.05260000
H       -2.22670000      -2.66810000      -0.40560000
