18
Properties=species:S:1:pos:R:3 gdb_117113=T pbc="F F F"
C       -0.32590000       1.06830000      -0.24910000
C       -0.54830000      -0.43200000      -0.14630000
O        0.06800000      -1.13220000      -1.25530000
C        1.35680000      -1.45900000      -1.12180000
O        2.05060000      -1.20580000      -0.17250000
C        1.86580000      -2.18330000      -2.38250000
C        3.31030000      -2.67620000      -2.20450000
C        0.96240000      -3.27180000      -2.76450000
N        0.28040000      -4.15270000      -3.07060000
H        0.73500000       1.31000000      -0.14940000
H       -0.69130000       1.45190000      -1.20590000
H       -0.86970000       1.57520000       0.55410000
H       -0.14210000      -0.83140000       0.78530000
H       -1.60650000      -0.68920000      -0.22280000
H        1.82560000      -1.43960000      -3.18990000
H        3.95120000      -1.83580000      -1.93370000
H        3.36740000      -3.41880000      -1.40660000
H        3.67250000      -3.12520000      -3.13160000
