23
Properties=species:S:1:pos:R:3 gdb_95344=T pbc="F F F"
C       -0.25350000       1.55790000       0.02790000
C       -0.01140000       0.04620000       0.00330000
C        0.68420000      -0.40270000      -1.29240000
C        0.76520000      -1.93120000      -1.37900000
C        1.33370000      -2.57710000      -0.12900000
O        2.77240000      -2.45180000       0.01680000
C        2.61520000      -2.25800000       1.43870000
C        1.12240000      -1.91060000       1.25630000
C        0.83690000      -0.39670000       1.20790000
H        0.69390000       2.10660000      -0.03510000
H       -0.87620000       1.87440000      -0.81550000
H       -0.75520000       1.86760000       0.95110000
H       -0.98900000      -0.45820000       0.05680000
H        0.15010000      -0.01320000      -2.16660000
H        1.69410000       0.02680000      -1.32170000
H       -0.24360000      -2.33720000      -1.53480000
H        1.36620000      -2.24970000      -2.23900000
H        1.05960000      -3.64350000      -0.10470000
H        2.79560000      -3.18960000       1.99460000
H        3.27400000      -1.47270000       1.82580000
H        0.42070000      -2.42620000       1.91630000
H        1.78800000       0.14970000       1.15360000
H        0.35950000      -0.08350000       2.14360000
