23
Properties=species:S:1:pos:R:3 gdb_112704=T pbc="F F F"
C       -0.16620000       1.55150000       0.06000000
C        0.05490000       0.04180000       0.05140000
C        0.79200000      -0.51130000      -1.18290000
C        1.23600000      -1.93950000      -0.77910000
C        2.57350000      -2.33140000      -1.39350000
O        2.85480000      -3.67380000      -1.03060000
C        1.24270000      -1.94240000       0.78150000
C        0.90620000      -0.50390000       1.22060000
O        2.07170000       0.28450000       1.46310000
H        0.78980000       2.08220000       0.07870000
H       -0.72390000       1.87490000      -0.82510000
H       -0.73250000       1.86320000       0.94400000
H       -0.91980000      -0.46400000       0.11200000
H        0.17680000      -0.49910000      -2.08700000
H        1.66880000       0.11780000      -1.39960000
H        0.49890000      -2.66550000      -1.13760000
H        2.52970000      -2.21460000      -2.48880000
H        3.36140000      -1.64890000      -1.02660000
H        3.71230000      -3.91360000      -1.39350000
H        0.49120000      -2.63890000       1.16430000
H        2.20340000      -2.26190000       1.19450000
H        0.36040000      -0.47520000       2.16830000
H        2.65960000       0.19650000       0.70600000
