12
Properties=species:S:1:pos:R:3 gdb_21589=T pbc="F F F"
N        0.01360000       1.37380000       0.08640000
C       -0.04390000       0.02530000       0.02970000
C       -1.16210000      -0.77010000       0.01290000
N       -1.12290000      -2.13700000      -0.01250000
N       -0.01630000      -2.76450000      -0.02740000
N        1.12450000      -2.01320000      -0.02070000
C        1.25810000      -0.64320000       0.00220000
O        2.33480000      -0.06400000      -0.00600000
H        0.92850000       1.78290000      -0.02940000
H       -0.80160000       1.94260000      -0.05730000
H       -2.16150000      -0.34790000       0.02260000
H        1.97310000      -2.56380000      -0.04130000
