15
Properties=species:S:1:pos:R:3 gdb_4009=T pbc="F F F"
O       -0.17300000       1.44700000       0.01140000
C        0.03840000       0.04160000       0.00180000
C       -1.34260000      -0.60160000       0.01160000
C       -1.33720000      -2.11100000       0.00340000
N       -0.20110000      -2.71320000      -0.01080000
O       -0.32560000      -4.09590000      -0.01710000
C       -2.59810000      -2.77740000       0.01190000
C       -3.69270000      -3.27810000       0.01980000
H        0.68680000       1.87700000       0.00610000
H        0.59540000      -0.27970000      -0.88960000
H        0.61230000      -0.28920000       0.87890000
H       -1.89550000      -0.25270000       0.89250000
H       -1.91220000      -0.24330000      -0.85480000
H        0.59330000      -4.38650000      -0.02760000
H       -4.64890000      -3.74040000       0.02650000
