18
Properties=species:S:1:pos:R:3 gdb_32628=T pbc="F F F"
C       -0.02970000       1.55550000       0.02130000
C       -0.01170000       0.02530000      -0.02700000
N        0.65600000      -0.50310000      -1.20470000
C        0.05040000      -0.93290000      -2.37270000
C        1.02730000      -1.30350000      -3.26600000
C        2.28000000      -1.07240000      -2.62650000
O        3.56600000      -1.33850000      -3.05720000
C        2.01100000      -0.57900000      -1.37320000
O        2.84230000      -0.20800000      -0.36390000
H        0.98970000       1.94930000       0.04900000
H       -0.53660000       1.96640000      -0.85680000
H       -0.55580000       1.89970000       0.91740000
H        0.49270000      -0.37210000       0.85920000
H       -1.03070000      -0.37270000      -0.02860000
H       -1.02430000      -0.94490000      -2.45140000
H        0.87110000      -1.70530000      -4.25520000
H        3.72190000      -0.85900000      -3.87730000
H        3.73770000      -0.39190000      -0.67340000
