18
Properties=species:S:1:pos:R:3 gdb_15728=T pbc="F F F"
O       -0.21720000       1.47630000       0.05640000
C       -0.00490000       0.07130000       0.14440000
C       -1.35560000      -0.59580000      -0.05440000
C       -1.99410000      -0.36670000      -1.43070000
O       -2.95380000      -1.41250000      -1.59300000
C       -2.66780000      -2.47090000      -0.68760000
C       -1.34700000      -2.12900000       0.01710000
O       -0.20940000      -2.58950000      -0.70550000
H        0.64030000       1.91020000       0.08430000
H        0.69610000      -0.28010000      -0.62320000
H        0.40950000      -0.20840000       1.12620000
H       -2.04170000      -0.22660000       0.71740000
H       -2.50860000       0.59370000      -1.51020000
H       -1.23210000      -0.42240000      -2.22190000
H       -3.48680000      -2.56790000       0.04070000
H       -2.59080000      -3.42070000      -1.23560000
H       -1.32700000      -2.50440000       1.05010000
H       -0.28120000      -3.54360000      -0.80430000
