21
Properties=species:S:1:pos:R:3 gdb_113084=T pbc="F F F"
C        0.23330000       0.49580000      -0.94000000
O       -0.13060000      -0.61760000      -0.15750000
C       -1.43900000      -0.55180000       0.35640000
C       -2.54250000      -0.98390000      -0.65680000
C       -2.45300000      -2.43830000      -0.10230000
O       -1.55350000      -3.26460000      -0.80110000
C       -2.08180000      -3.81100000      -1.98710000
C       -1.72090000      -1.86490000       1.15020000
O       -0.65370000      -2.56960000       1.68960000
H        1.26930000       0.34700000      -1.25360000
H       -0.39490000       0.59920000      -1.83730000
H        0.16520000       1.43160000      -0.36360000
H       -1.59540000       0.40030000       0.88420000
H       -3.50920000      -0.51210000      -0.45980000
H       -2.29450000      -0.86030000      -1.71310000
H       -3.40400000      -2.96440000       0.06610000
H       -2.34920000      -3.03630000      -2.72120000
H       -1.31040000      -4.45210000      -2.42040000
H       -2.97880000      -4.41710000      -1.78560000
H       -2.43700000      -1.67550000       1.95490000
H       -0.03980000      -2.72240000       0.96060000
