19
Properties=species:S:1:pos:R:3 gdb_103787=T pbc="F F F"
C        0.20360000       1.46060000       0.23660000
C        0.05830000       0.01660000       0.13660000
C       -0.06720000      -1.17920000       0.06160000
C       -0.17470000      -2.60790000      -0.05200000
O       -0.82260000      -3.32380000       1.02260000
C       -1.46410000      -3.30750000      -0.26600000
C       -2.76910000      -2.55360000      -0.33980000
C       -1.44300000      -4.67530000      -0.92530000
O       -2.30550000      -5.57390000      -0.24910000
H        1.25440000       1.76010000       0.16050000
H       -0.34870000       1.97310000      -0.55870000
H       -0.17820000       1.82710000       1.19580000
H        0.72580000      -3.10400000      -0.41600000
H       -2.72530000      -1.64380000       0.26010000
H       -2.99340000      -2.28100000      -1.37660000
H       -3.57940000      -3.19080000       0.02520000
H       -1.80900000      -4.61170000      -1.95550000
H       -0.41080000      -5.05460000      -0.95250000
H       -2.00110000      -5.60550000       0.66570000
