18
Properties=species:S:1:pos:R:3 gdb_103715=T pbc="F F F"
C        0.09600000       1.47390000      -0.35660000
C       -0.03210000       0.06380000       0.22990000
C       -1.43870000      -0.48470000       0.09890000
O       -2.43240000       0.23280000       0.76690000
C       -1.92600000      -1.09180000      -1.18110000
C       -1.64590000      -2.00000000       0.01570000
O       -0.49750000      -2.79350000       0.00580000
C       -2.76540000      -2.56520000       0.73530000
N       -3.63650000      -3.05070000       1.32180000
H        1.10240000       1.87030000      -0.19530000
H       -0.09720000       1.47170000      -1.43430000
H       -0.62150000       2.15460000       0.10910000
H        0.66710000      -0.62560000      -0.24960000
H        0.23370000       0.07650000       1.29590000
H       -2.28860000       0.14630000       1.71700000
H       -2.96000000      -0.91690000      -1.45300000
H       -1.22350000      -1.18590000      -2.00180000
H       -0.65330000      -3.54630000      -0.57670000
