16
Properties=species:S:1:pos:R:3 gdb_34289=T pbc="F F F"
N        0.05760000      -1.11940000       0.02520000
C        0.04540000       0.03510000       0.00980000
C       -0.03390000       1.48840000      -0.00220000
C       -0.71260000       2.14150000       1.26020000
C       -0.10410000       3.57020000       1.19370000
C        0.78850000       3.45350000      -0.08510000
O        1.25970000       2.10070000       0.02670000
C       -0.15490000       3.36460000      -1.27740000
C       -0.67650000       2.14090000      -1.23120000
H       -1.80130000       2.11520000       1.19750000
H       -0.39920000       1.61040000       2.16040000
H       -0.85470000       4.35850000       1.11130000
H        0.51910000       3.77180000       2.06730000
H        1.62840000       4.14240000      -0.15010000
H       -0.41370000       4.18130000      -1.93680000
H       -1.45430000       1.69010000      -1.83010000
