20
Properties=species:S:1:pos:R:3 gdb_13165=T pbc="F F F"
C       -0.10670000       1.51570000       0.01210000
C        0.03480000      -0.01750000      -0.06520000
C        0.75970000      -0.42100000      -1.26990000
C        1.37870000      -0.74660000      -2.24830000
C        0.71020000      -0.58760000       1.19100000
C       -0.03840000      -0.48770000       2.55110000
C        0.48660000      -1.90780000       2.89570000
C        0.77260000      -2.12720000       1.38530000
H        0.87760000       1.99070000       0.06710000
H       -0.62200000       1.90660000      -0.86910000
H       -0.67730000       1.79990000       0.90140000
H       -0.97560000      -0.44970000      -0.11910000
H        1.91480000      -1.03870000      -3.11700000
H        1.71430000      -0.15740000       1.27930000
H        0.22270000       0.33420000       3.22210000
H       -1.12450000      -0.48560000       2.40600000
H        1.40920000      -1.86630000       3.48160000
H       -0.20370000      -2.59680000       3.38740000
H       -0.06470000      -2.62340000       0.88320000
H        1.69540000      -2.63780000       1.10300000
