16
Properties=species:S:1:pos:R:3 gdb_44068=T pbc="F F F"
O        0.00030000      -0.01750000       0.14810000
C        0.01370000       1.18030000       0.11100000
C       -1.13480000       2.19840000       0.16640000
C       -0.27930000       3.46840000      -0.02500000
C       -0.89410000       4.53890000      -0.97130000
N       -0.29380000       3.71300000      -2.13620000
C        0.71250000       3.22180000      -1.07610000
C        1.19090000       2.13800000      -0.01880000
O        0.80300000       3.16890000       1.00090000
H       -1.89310000       2.00750000      -0.59860000
H       -1.62350000       2.20530000       1.14430000
H       -1.98140000       4.65070000      -0.99130000
H       -0.40520000       5.51380000      -0.94370000
H       -0.96280000       2.98170000      -2.37380000
H        1.49850000       3.97900000      -1.06710000
H        2.21410000       1.78020000       0.07410000
