17
Properties=species:S:1:pos:R:3 gdb_83392=T pbc="F F F"
O        0.01670000       1.52210000       0.00740000
C        0.02170000       0.13080000      -0.01950000
C        0.15720000      -0.61850000       1.30160000
O       -0.97240000       0.00290000       2.04200000
C       -2.10320000      -0.01570000       1.09530000
C       -1.34430000      -0.70760000      -0.01250000
O       -1.65410000      -1.47460000      -1.16460000
C       -0.59680000      -2.41240000      -0.74630000
C       -0.57740000      -1.82980000       0.70270000
H       -0.27080000       1.77570000       0.89450000
H        0.68380000      -0.19820000      -0.81920000
H        1.01870000      -0.61820000       1.96770000
H       -2.93120000      -0.59420000       1.51160000
H       -2.41940000       1.01110000       0.88730000
H       -0.95720000      -3.44180000      -0.80200000
H        0.30380000      -2.30100000      -1.35610000
H       -1.10220000      -2.45100000       1.42730000
