18
Properties=species:S:1:pos:R:3 gdb_65012=T pbc="F F F"
C       -0.26170000       1.46960000      -0.44370000
C        0.02540000       0.01850000      -0.12100000
C        1.02840000      -0.72340000      -0.92310000
N        1.32220000      -0.34930000       0.47480000
C       -1.14520000      -0.77100000       0.49620000
C       -1.44360000      -0.20800000       1.89130000
O       -2.51470000       0.16460000       2.28370000
C       -2.31260000      -0.82930000      -0.37080000
C       -3.26890000      -0.87180000      -1.09620000
H        0.60780000       1.94180000      -0.91120000
H       -1.10840000       1.55270000      -1.13110000
H       -0.51280000       2.03680000       0.46000000
H        0.91060000      -1.78920000      -1.09800000
H        1.53280000      -0.18750000      -1.72240000
H        1.93700000       0.46070000       0.49780000
H       -0.76250000      -1.78570000       0.67910000
H       -0.53460000      -0.17570000       2.52940000
H       -4.12140000      -0.91350000      -1.72810000
