21
Properties=species:S:1:pos:R:3 gdb_95171=T pbc="F F F"
C       -0.01470000       1.46230000       0.04030000
C        0.01930000      -0.04930000      -0.01380000
O        0.66920000      -0.44460000      -1.19890000
C        0.55060000      -1.84530000      -1.40710000
C        0.94070000      -2.62790000      -0.17010000
C        2.25070000      -2.34920000       0.53790000
C        0.94910000      -1.89840000       1.15350000
C        0.41900000      -2.53380000       2.41370000
O        0.71260000      -0.50690000       1.12740000
H        1.00610000       1.85020000       0.00180000
H       -0.57790000       1.85420000      -0.80960000
H       -0.48520000       1.79190000       0.96930000
H       -1.00180000      -0.47670000      -0.01430000
H       -0.48800000      -2.09170000      -1.68450000
H        1.19380000      -2.08440000      -2.25980000
H        0.58190000      -3.65330000      -0.15620000
H        2.78250000      -3.18340000       0.98280000
H        2.87580000      -1.56220000       0.13090000
H        0.67100000      -3.59770000       2.45140000
H        0.85210000      -2.04650000       3.29350000
H       -0.67020000      -2.43490000       2.47480000
