15
Properties=species:S:1:pos:R:3 gdb_124328=T pbc="F F F"
C       -0.14850000       1.49400000       0.04720000
C        0.01740000      -0.00310000      -0.00640000
O        1.07470000      -0.58380000      -0.06790000
N       -1.18240000      -0.74210000       0.01810000
C       -1.28070000      -2.10910000      -0.02170000
C       -2.60890000      -2.42180000       0.02160000
C       -3.25930000      -1.15560000       0.08790000
O       -4.58920000      -0.98200000       0.14670000
N       -2.41700000      -0.14400000       0.08640000
H        0.84170000       1.94730000       0.02140000
H       -0.75080000       1.84300000      -0.79550000
H       -0.68010000       1.78810000       0.95580000
H       -0.38920000      -2.71090000      -0.07660000
H       -3.06730000      -3.39610000       0.00890000
H       -4.75690000      -0.03130000       0.18370000
