15
Properties=species:S:1:pos:R:3 gdb_24319=T pbc="F F F"
C       -0.17190000       1.49800000      -0.05520000
C        1.38730000       1.75170000       0.08650000
C        2.20740000       1.71880000       1.42610000
O        2.95670000       0.43780000       1.39800000
C        2.13300000      -0.36160000       0.67200000
N        1.42260000      -1.40490000       1.02900000
C        0.17290000      -1.16410000       0.42830000
C        0.19190000      -0.00020000      -0.31920000
N        1.56370000       0.35530000      -0.32450000
H       -0.76220000       1.63870000       0.85230000
H       -0.62120000       2.06260000      -0.87430000
H        1.78820000       2.48940000      -0.61210000
H        2.94700000       2.51650000       1.49660000
H        1.57220000       1.72200000       2.31840000
H       -0.65190000      -1.82360000       0.65690000
