18
Properties=species:S:1:pos:R:3 gdb_84543=T pbc="F F F"
C       -0.35310000       1.39740000      -0.04840000
C        0.07300000      -0.07810000       0.00350000
C        0.95660000      -0.48010000      -1.16010000
C        2.18730000      -0.83970000      -0.79370000
C        2.36220000      -0.81410000       0.70280000
C        0.95430000      -0.41080000       1.21800000
O        0.75800000      -1.77510000       1.72360000
C        2.04530000      -2.14050000       1.37920000
N        2.67660000      -3.20300000       1.58210000
H        0.51970000       2.05870000      -0.02930000
H       -0.90960000       1.61070000      -0.96620000
H       -0.99460000       1.65170000       0.80180000
H       -0.82750000      -0.70490000       0.04860000
H        0.59880000      -0.45460000      -2.18410000
H        2.97860000      -1.16080000      -1.46010000
H        3.25320000      -0.29930000       1.06580000
H        0.88410000       0.30190000       2.04210000
H        2.10520000      -3.88600000       2.08280000
