15
Properties=species:S:1:pos:R:3 gdb_131396=T pbc="F F F"
O        0.36710000       1.34220000      -0.02920000
C        0.16190000       0.01350000       0.01180000
N        0.17960000      -0.76770000      -1.06080000
N       -0.06920000      -1.97360000      -0.54380000
N       -0.23790000      -2.02620000       0.76720000
C       -0.10090000      -0.75780000       1.16470000
C       -0.20780000      -0.33410000       2.57240000
C       -1.30260000      -0.86740000       3.43470000
N        0.08340000      -1.29840000       3.64910000
H        0.54140000       1.58720000      -0.94630000
H       -0.10030000      -2.79800000      -1.11900000
H        0.15890000       0.67090000       2.75930000
H       -1.71970000      -0.24500000       4.22170000
H       -1.99870000      -1.56030000       2.97040000
H        0.21830000      -2.21460000       3.22500000
