19
Properties=species:S:1:pos:R:3 gdb_57063=T pbc="F F F"
C       -0.54760000       1.37130000      -0.15960000
C        0.06950000      -0.01070000      -0.06630000
O        1.30560000      -0.12590000      -0.81010000
C        1.98930000      -0.72140000       0.30690000
C        0.76710000      -0.51390000       1.23040000
C        0.91960000       0.41720000       2.44350000
N        1.46190000      -0.34810000       3.57420000
C        1.72640000       1.62480000       2.15770000
N        2.39450000       2.55600000       2.00100000
H        0.13890000       2.15120000       0.17640000
H       -0.80750000       1.57740000      -1.20260000
H       -1.46970000       1.42320000       0.43040000
H       -0.65680000      -0.75400000      -0.42690000
H        2.25050000      -1.77080000       0.12140000
H        2.89860000      -0.16650000       0.56920000
H        0.33870000      -1.43640000       1.62590000
H       -0.08040000       0.76110000       2.73500000
H        2.40210000      -0.66580000       3.35120000
H        1.55440000       0.25430000       4.38740000
