18
Properties=species:S:1:pos:R:3 gdb_26082=T pbc="F F F"
C        0.01870000       1.46100000      -0.14620000
C       -0.00650000      -0.06500000       0.07360000
C        0.71100000      -0.43490000       1.29550000
C        1.31930000      -0.69880000       2.29700000
N       -1.37130000      -0.58960000       0.07320000
C       -2.26890000      -0.51520000       1.11190000
C       -3.47520000      -1.00720000       0.67140000
C       -3.30750000      -1.38810000      -0.68870000
C       -2.00330000      -1.11650000      -1.02870000
H        1.05050000       1.81790000      -0.20140000
H       -0.49640000       1.70710000      -1.07830000
H       -0.48350000       1.97180000       0.67870000
H        0.49760000      -0.54370000      -0.77430000
H        1.85350000      -0.95100000       3.17990000
H       -1.96040000      -0.14020000       2.07410000
H       -4.37280000      -1.09690000       1.26390000
H       -4.05170000      -1.82290000      -1.33820000
H       -1.46520000      -1.25270000      -1.95380000
