14
Properties=species:S:1:pos:R:3 gdb_123642=T pbc="F F F"
C       -0.06200000       1.69670000       0.00830000
C        1.44160000       1.88520000      -0.03680000
N        2.15270000       1.38430000       1.15650000
C        2.11800000       0.55730000      -0.07560000
C        1.03220000      -0.45210000      -0.06580000
C       -0.30190000       0.16830000       0.03000000
O       -1.37220000      -0.38340000       0.11620000
N        1.28290000      -2.86860000       0.01370000
N        1.19620000      -1.73920000      -0.02170000
H       -0.52280000       2.14210000       0.89410000
H       -0.55510000       2.11670000      -0.87480000
H        1.85780000       2.72500000      -0.58230000
H        3.05910000       1.84340000       1.22760000
H        3.03080000       0.38140000      -0.63340000
