15
Properties=species:S:1:pos:R:3 gdb_11645=T pbc="F F F"
N        0.27990000       1.48050000      -0.05760000
C        0.04500000       0.07410000       0.01150000
C       -0.11490000      -0.65390000       1.37590000
C       -1.56710000      -0.11740000       1.49380000
C       -1.38620000      -0.64910000       0.04640000
N       -0.72110000      -1.85850000       0.67050000
C       -2.36210000      -0.74190000      -1.00810000
N       -3.11680000      -0.77040000      -1.88440000
H        0.22900000       1.82080000      -1.01120000
H       -0.36110000       2.02570000       0.50650000
H        0.72790000      -0.43720000      -0.67560000
H        0.62190000      -0.77060000       2.16920000
H       -2.23550000      -0.71310000       2.11430000
H       -1.71970000       0.95380000       1.62450000
H       -0.03890000      -2.24810000       0.01010000
