17
Properties=species:S:1:pos:R:3 gdb_1519=T pbc="F F F"
C       -0.26660000       1.46240000       0.15590000
C        0.30820000       0.07560000      -0.12460000
N        0.91040000      -0.50770000       1.06530000
C        0.83870000      -1.86910000       1.29440000
O        0.14090000      -2.62360000       0.63780000
N        1.63610000      -2.29870000       2.34050000
C        1.49190000      -3.65350000       2.84190000
H        0.51100000       2.15940000       0.48970000
H       -0.71540000       1.87970000      -0.75070000
H       -1.03390000       1.41540000       0.93410000
H       -0.47250000      -0.61920000      -0.43940000
H        1.03610000       0.13060000      -0.94810000
H        1.70740000      -0.02050000       1.44600000
H        1.92090000      -1.60180000       3.01100000
H        2.44090000      -3.99700000       3.26370000
H        0.71100000      -3.74570000       3.60930000
H        1.21760000      -4.29260000       2.00260000
