20
Properties=species:S:1:pos:R:3 gdb_89286=T pbc="F F F"
C       -0.58160000       1.37890000       0.06850000
C        0.07450000       0.00800000       0.01290000
C        1.40810000      -0.16050000      -0.78760000
C        2.07970000      -0.77550000       0.46340000
C        2.90120000      -2.03030000       0.38600000
O        2.74620000       0.27950000       1.24980000
C        1.62110000       0.46430000       2.03260000
N        1.43290000       1.22980000       3.01010000
C        0.78150000      -0.54870000       1.29690000
H        0.11610000       2.14190000       0.42610000
H       -0.93250000       1.67760000      -0.92540000
H       -1.44270000       1.37830000       0.74460000
H       -0.65350000      -0.73520000      -0.32540000
H        1.33650000      -0.83720000      -1.64270000
H        1.88490000       0.76850000      -1.10880000
H        3.82060000      -1.85100000      -0.18230000
H        3.17810000      -2.37880000       1.38520000
H        2.34060000      -2.82350000      -0.11840000
H        2.27110000       1.77830000       3.21330000
H        0.26730000      -1.30260000       1.89050000
