18
Properties=species:S:1:pos:R:3 gdb_16623=T pbc="F F F"
C       -0.09100000       1.54480000      -0.01700000
C        0.01870000       0.01250000       0.00280000
C        0.80300000      -0.54330000      -1.18610000
O        2.15520000      -0.08580000      -1.26260000
C        1.89090000      -1.38440000      -0.66790000
C        1.78860000      -1.34490000       0.81820000
C        0.78110000      -0.55160000       1.20440000
C        0.40700000      -0.19570000       2.60780000
H        0.90680000       1.98890000      -0.06580000
H       -0.65850000       1.88130000      -0.89040000
H       -0.59970000       1.92270000       0.87490000
H       -0.99650000      -0.41200000      -0.01040000
H        0.31240000      -0.70990000      -2.14220000
H        2.31800000      -2.22570000      -1.20490000
H        2.46880000      -1.86580000       1.48180000
H        1.01140000      -0.74650000       3.33350000
H        0.54520000       0.87550000       2.79970000
H       -0.65060000      -0.41340000       2.80490000
