19
Properties=species:S:1:pos:R:3 gdb_104955=T pbc="F F F"
C       -1.59890000      -0.62390000      -0.69450000
C       -0.18850000      -0.31820000      -0.17290000
C        0.91720000      -0.66090000      -1.15920000
C        2.23810000      -1.22580000      -0.62180000
C        1.29770000      -2.12100000      -1.35290000
C        1.11340000       0.19900000      -2.37070000
O        1.84610000      -0.11510000      -3.29060000
C        0.42160000       1.48050000      -2.40370000
C       -0.12460000       2.55190000      -2.46350000
H       -1.82820000      -0.03820000      -1.58930000
H       -1.70150000      -1.68330000      -0.95130000
H       -2.35290000      -0.38570000       0.06190000
H       -0.11690000       0.73960000       0.10420000
H       -0.01370000      -0.88770000       0.74710000
H        3.13980000      -0.91710000      -1.13760000
H        2.32180000      -1.31290000       0.45590000
H        0.72290000      -2.84570000      -0.78680000
H        1.56880000      -2.41600000      -2.35950000
H       -0.60370000       3.49880000      -2.52680000
