19
Properties=species:S:1:pos:R:3 gdb_40752=T pbc="F F F"
C        0.05110000       1.41420000      -0.13040000
O        1.13600000       0.49170000      -0.22090000
C       -0.18290000      -0.03110000      -0.01440000
C       -0.44730000      -0.68850000       1.30840000
C       -1.93530000      -0.89270000       1.75540000
C       -1.66600000      -2.40640000       1.99360000
C       -1.91230000      -3.28000000       0.75740000
O       -0.62560000      -2.92200000       0.19540000
C       -0.24020000      -2.22320000       1.40030000
H        0.03860000       2.03540000       0.76510000
H       -0.20410000       1.93230000      -1.05420000
H       -0.58770000      -0.55880000      -0.87720000
H        0.13400000      -0.17840000       2.08310000
H       -2.20950000      -0.32820000       2.64860000
H       -2.68210000      -0.69000000       0.98130000
H       -1.88470000      -2.81750000       2.97760000
H       -1.96620000      -4.35750000       0.96090000
H       -2.74780000      -2.99600000       0.10520000
H        0.69350000      -2.60700000       1.81950000
