23
Properties=species:S:1:pos:R:3 gdb_40821=T pbc="F F F"
C       -0.17850000       1.41270000      -0.17480000
C        1.25440000       1.02560000       0.09780000
C        0.18290000      -0.03550000       0.04200000
C       -0.25510000      -0.76120000       1.29680000
C       -1.68970000      -1.30820000       1.18830000
C       -2.05020000      -2.14100000       2.42620000
C       -0.97320000      -3.19730000       2.68200000
O        0.31330000      -2.61510000       2.80390000
C        0.70020000      -1.91680000       1.63350000
H       -0.72290000       1.92110000       0.61450000
H       -0.44400000       1.73680000      -1.17500000
H        1.96900000       1.08530000      -0.71560000
H        1.66800000       1.27600000       1.06960000
H        0.18280000      -0.65740000      -0.85120000
H       -0.21750000      -0.05520000       2.13900000
H       -2.39950000      -0.48600000       1.04630000
H       -1.76080000      -1.94110000       0.29170000
H       -2.12090000      -1.48960000       3.30610000
H       -3.02480000      -2.62720000       2.30210000
H       -1.15450000      -3.73480000       3.61760000
H       -0.97520000      -3.93790000       1.86190000
H        0.74910000      -2.61270000       0.77560000
H        1.71200000      -1.54400000       1.81770000
