19
Properties=species:S:1:pos:R:3 gdb_57266=T pbc="F F F"
C        0.17610000       1.45030000       0.16700000
C       -0.01500000      -0.06570000       0.01270000
O        0.58360000      -0.65930000       1.17140000
C       -1.44260000      -0.40870000      -0.04350000
C       -2.60070000      -0.73070000      -0.05230000
C        0.68770000      -0.56910000      -1.26750000
O        0.16180000      -0.02520000      -2.44780000
C        2.15800000      -0.88890000      -1.22670000
C        1.12760000      -1.99330000      -1.37970000
H        1.24430000       1.67360000       0.24090000
H       -0.25130000       1.98470000      -0.68440000
H       -0.31920000       1.79480000       1.07670000
H        0.11850000      -1.48260000       1.35070000
H       -3.62620000      -1.00670000      -0.07460000
H        0.52620000       0.85950000      -2.55790000
H        2.74090000      -0.62220000      -2.10150000
H        2.66940000      -0.81170000      -0.27510000
H        0.97390000      -2.65940000      -0.53890000
H        1.01420000      -2.44880000      -2.35610000
