23
Properties=species:S:1:pos:R:3 gdb_110605=T pbc="F F F"
C        0.25880000       1.47440000       0.12680000
C       -0.19110000       0.03050000      -0.12960000
C        0.59350000      -0.62040000      -1.25260000
C        1.94710000      -1.26630000      -1.09630000
C        2.05640000      -2.09830000       0.15890000
C        2.21090000      -3.55470000      -0.20280000
C        0.83520000      -2.93640000      -0.27070000
C       -0.31920000      -3.46520000       0.53830000
C        0.71970000      -2.10030000      -1.52910000
H        1.31700000       1.51100000       0.40640000
H        0.13330000       2.09380000      -0.76840000
H       -0.31980000       1.93490000       0.93370000
H       -0.08350000      -0.55220000       0.78980000
H       -1.25980000       0.01930000      -0.38140000
H        0.53160000      -0.05470000      -2.18380000
H        2.78980000      -0.98340000      -1.71850000
H        2.29080000      -1.73180000       1.15270000
H        2.74080000      -3.83440000      -1.11020000
H        2.37170000      -4.23130000       0.63260000
H        0.01590000      -3.84020000       1.51110000
H       -1.07860000      -2.69750000       0.71640000
H       -0.80960000      -4.29820000       0.01950000
H        0.52110000      -2.50180000      -2.51830000
