20
Properties=species:S:1:pos:R:3 gdb_12145=T pbc="F F F"
C        0.31130000       1.53650000       0.00730000
C        1.38930000       0.47510000      -0.00880000
C       -0.05760000       0.08270000       0.00310000
C       -0.80520000      -0.67770000       1.11340000
C       -1.61350000      -1.38460000       0.01020000
C       -2.09000000      -2.80600000       0.00710000
C       -3.08630000      -1.66760000       0.02280000
C       -0.82650000      -0.66580000      -1.10080000
H        0.16210000       2.09980000       0.92340000
H        0.14460000       2.10960000      -0.89970000
H        1.95130000       0.33090000      -0.92650000
H        1.96890000       0.32120000       0.89640000
H       -0.17420000      -1.34390000       1.71190000
H       -1.39300000      -0.05110000       1.79290000
H       -1.98350000      -3.37970000      -0.90860000
H       -1.96590000      -3.38950000       0.91440000
H       -3.63550000      -1.48150000       0.94080000
H       -3.65310000      -1.47170000      -0.88240000
H       -1.42720000      -0.03210000      -1.76210000
H       -0.20720000      -1.32560000      -1.71840000
