13
Properties=species:S:1:pos:R:3 gdb_133249=T pbc="F F F"
C       -0.02110000       1.43680000       0.00530000
N       -0.00530000      -0.02290000       0.00680000
N       -0.04630000      -0.63370000      -1.19410000
C       -0.03190000      -1.93230000      -1.18350000
N        0.02060000      -2.73600000      -0.07450000
C        0.05870000      -2.13050000       1.05130000
F        0.11010000      -2.83100000       2.15940000
C        0.05040000      -0.66860000       1.23810000
O        0.08600000      -0.07490000       2.29740000
H        0.87930000       1.81780000       0.49350000
H       -0.06590000       1.76090000      -1.03210000
H       -0.88780000       1.79870000       0.56390000
H       -0.06490000      -2.42450000      -2.14700000
