20
Properties=species:S:1:pos:R:3 gdb_52439=T pbc="F F F"
O        0.37030000       0.80610000      -1.54150000
C        0.18310000       1.49940000      -0.56420000
N        1.06850000       1.67940000       0.45260000
C        2.39460000       1.08160000       0.46180000
C        3.50540000       2.06570000       0.07420000
C        4.89210000       1.41790000       0.10550000
C        6.01080000       2.40170000      -0.29290000
C        7.33820000       1.80040000      -0.25560000
C        8.42090000       1.28000000      -0.21540000
H       -0.75650000       2.06230000      -0.39320000
H        0.81580000       2.31620000       1.19140000
H        2.59000000       0.66350000       1.45680000
H        2.36150000       0.25200000      -0.24870000
H        3.29310000       2.45460000      -0.92910000
H        3.48390000       2.92780000       0.75540000
H        5.10340000       1.02770000       1.10830000
H        4.91790000       0.55700000      -0.57260000
H        5.81270000       2.78890000      -1.30100000
H        5.98590000       3.27280000       0.37540000
H        9.38220000       0.83050000      -0.18560000
