18
Properties=species:S:1:pos:R:3 gdb_22723=T pbc="F F F"
C        0.06890000       1.30180000       0.27820000
O       -0.01720000      -0.03320000      -0.19830000
C       -1.28740000      -0.55040000      -0.14740000
C       -1.89870000      -1.08450000       1.10860000
C       -1.65450000      -2.03870000      -0.06500000
C       -2.68920000      -1.79950000      -1.10500000
C       -2.36750000      -0.31150000      -1.22950000
N       -3.43720000      -2.61750000      -1.71790000
O       -4.22310000      -1.94990000      -2.68060000
H        1.11870000       1.59420000       0.21210000
H       -0.53250000       1.98900000      -0.33280000
H       -0.26440000       1.37600000       1.32230000
H       -1.19380000      -1.22610000       1.92200000
H       -2.91030000      -0.83260000       1.41540000
H       -1.02650000      -2.91340000       0.03960000
H       -3.16500000       0.40480000      -1.01260000
H       -1.93450000      -0.08970000      -2.20940000
H       -4.71550000      -2.67710000      -3.07540000
