19
Properties=species:S:1:pos:R:3 gdb_39242=T pbc="F F F"
C        0.05510000       1.54340000       0.35810000
C        1.35270000       2.07470000      -0.26760000
C        2.64530000       1.60070000       0.37240000
O        2.82200000       1.81520000       1.77380000
C        2.83180000       0.46130000       1.29780000
C        1.72840000      -0.45830000       1.81830000
C        0.73810000      -0.91580000       0.76140000
O       -0.65550000      -0.78300000       1.07730000
C       -0.10370000       0.06620000       0.06810000
H        0.06660000       1.71250000       1.43740000
H       -0.79990000       2.09820000      -0.04260000
H        1.39090000       1.80230000      -1.33130000
H        1.35670000       3.17150000      -0.23860000
H        3.52530000       1.87930000      -0.21410000
H        3.83010000       0.02010000       1.30400000
H        2.18690000      -1.32980000       2.29630000
H        1.17910000       0.07300000       2.59900000
H        0.98320000      -1.84160000       0.24080000
H       -0.43880000      -0.17470000      -0.94270000
