10
Properties=species:S:1:pos:R:3 gdb_3940=T pbc="F F F"
O        0.01670000       1.31180000       0.12730000
C        0.06250000      -0.02400000       0.04050000
N        0.13740000      -0.75140000      -1.02880000
N        0.15820000      -2.09260000      -0.59960000
C        0.09380000      -2.06610000       0.69390000
O        0.08460000      -3.10410000       1.54040000
N        0.03020000      -0.78600000       1.17900000
H        0.05070000       1.64610000      -0.77910000
H        0.13630000      -3.90130000       0.99610000
H       -0.02630000      -0.48080000       2.13560000
