17
Properties=species:S:1:pos:R:3 gdb_11558=T pbc="F F F"
O        0.17240000       1.33160000       0.11330000
C        0.07200000      -0.05600000       0.00660000
C       -1.40450000      -0.47150000       0.02940000
O       -2.27150000       0.38580000       0.13100000
N       -1.65600000      -1.79800000      -0.06730000
C       -2.98260000      -2.34660000      -0.05950000
C       -3.31640000      -3.54410000      -0.90510000
C       -3.25630000      -3.66740000       0.60460000
H       -0.75080000       1.63390000       0.17290000
H        0.53020000      -0.41780000      -0.92850000
H        0.59690000      -0.55840000       0.83580000
H       -0.87460000      -2.43040000      -0.14670000
H       -3.71340000      -1.55450000       0.03420000
H       -4.28190000      -3.57310000      -1.39740000
H       -2.51330000      -3.99870000      -1.47660000
H       -2.41360000      -4.20340000       1.02980000
H       -4.18010000      -3.78190000       1.16040000
