19
Properties=species:S:1:pos:R:3 gdb_70062=T pbc="F F F"
O        0.04370000       1.45260000       0.20130000
C        0.10400000       0.06740000       0.04070000
C       -0.55190000      -0.72270000       1.12490000
C        0.96510000      -0.82740000       0.96440000
C        1.39320000      -1.99610000       0.12950000
C        1.03390000      -1.79320000      -1.14060000
C        0.39720000      -2.49200000      -2.32320000
C       -0.73510000      -1.40780000      -2.18510000
C        0.26370000      -0.51430000      -1.35260000
H        0.84230000       1.83040000      -0.18400000
H       -0.90680000      -0.12420000       1.95700000
H       -1.16060000      -1.58870000       0.88600000
H        1.58740000      -0.40050000       1.74400000
H        1.75960000      -2.92360000       0.55670000
H        0.95270000      -2.36630000      -3.25870000
H        0.12360000      -3.54320000      -2.21000000
H       -1.11900000      -0.97520000      -3.11140000
H       -1.56570000      -1.76810000      -1.57450000
H        0.75480000       0.21020000      -2.01730000
