14
Properties=species:S:1:pos:R:3 gdb_75857=T pbc="F F F"
N        0.17860000       1.45390000      -0.14850000
C        0.00400000       0.02080000      -0.00560000
C        0.59160000      -0.49840000       1.33530000
O        1.66250000      -0.26670000       1.82610000
N       -0.39400000      -1.32070000       1.88610000
C       -1.55410000      -1.31030000       1.13170000
C       -1.41430000      -0.55830000       0.02130000
C       -2.37960000      -0.32310000      -0.97570000
N       -3.13650000      -0.08850000      -1.82350000
H       -0.12090000       1.74960000      -1.07220000
H       -0.39600000       1.95380000       0.52340000
H        0.58130000      -0.46490000      -0.80370000
H       -0.28970000      -1.75760000       2.78770000
H       -2.42060000      -1.86560000       1.46180000
