14
Properties=species:S:1:pos:R:3 gdb_129617=T pbc="F F F"
N        0.08880000       1.42640000       0.30020000
C        0.01110000       0.04860000       0.09040000
C       -1.11240000      -0.73940000      -0.05430000
C       -2.56890000      -0.39940000      -0.03670000
C       -3.20030000      -0.42320000      -1.36270000
N       -3.68710000      -0.45500000      -2.40980000
N       -0.59590000      -1.99500000      -0.16920000
N        0.73820000      -1.99490000      -0.07910000
N        1.11260000      -0.75280000       0.07430000
H        1.05570000       1.70350000       0.42360000
H       -0.31770000       1.97020000      -0.45160000
H       -3.12660000      -1.07720000       0.62160000
H       -2.68070000       0.60430000       0.38840000
H       -1.07830000      -2.86670000      -0.32480000
