18
Properties=species:S:1:pos:R:3 gdb_64611=T pbc="F F F"
C       -0.12820000       1.59930000       0.02480000
C        0.01180000       0.06080000       0.01310000
C        0.82130000      -0.46360000      -1.17640000
C        1.80290000      -1.28230000      -0.79710000
C        1.88590000      -1.41160000       0.68530000
C        2.23080000      -0.11980000       1.40270000
C        0.78830000      -0.51200000       1.21950000
C       -1.33870000      -0.53050000      -0.02220000
N       -2.39980000      -0.98920000      -0.04810000
H        0.86050000       2.06210000       0.05620000
H       -0.64740000       1.94820000      -0.87210000
H       -0.69790000       1.92850000       0.89780000
H        0.58930000      -0.15950000      -2.18980000
H        2.49930000      -1.76960000      -1.46990000
H        2.13780000      -2.36120000       1.14260000
H        2.62000000      -0.19170000       2.41300000
H        2.65240000       0.68570000       0.81160000
H        0.21700000      -0.78430000       2.09780000
