18
Properties=species:S:1:pos:R:3 gdb_63094=T pbc="F F F"
C       -0.05700000       1.52880000       0.02540000
C       -0.02190000       0.01690000      -0.07260000
C       -1.22960000      -0.67350000       0.52580000
C        0.71160000      -0.68280000      -1.16150000
C        1.73430000       0.06370000      -2.00420000
O        2.71040000       0.53020000      -1.06740000
C        2.41730000       0.09860000       0.20130000
O        3.08340000       0.38670000       1.14660000
N        1.25560000      -0.72920000       0.20830000
H        0.80760000       2.01330000      -0.43130000
H       -0.95850000       1.90520000      -0.46880000
H       -0.09920000       1.83730000       1.07490000
H       -2.14250000      -0.36680000       0.00380000
H       -1.13370000      -1.75930000       0.45790000
H       -1.33680000      -0.40770000       1.58220000
H        0.32130000      -1.61660000      -1.55610000
H        2.22090000      -0.60790000      -2.71830000
H        1.32970000       0.92280000      -2.54920000
