18
Properties=species:S:1:pos:R:3 gdb_27528=T pbc="F F F"
C        0.05380000       1.37470000      -0.32980000
C       -0.03520000      -0.08250000      -0.05060000
C       -0.67670000      -1.11450000      -0.66070000
C       -0.37490000      -2.30440000       0.09610000
C        0.43480000      -1.88680000       1.10630000
O        0.64800000      -0.54300000       1.03550000
C       -0.81680000      -3.68880000      -0.15690000
C       -2.10170000      -3.97020000      -0.85450000
N       -0.82630000      -4.23830000      -1.53250000
H        1.08890000       1.68660000      -0.50890000
H       -0.53570000       1.62000000      -1.21580000
H       -0.32540000       1.96790000       0.51000000
H       -1.29640000      -1.03620000      -1.54150000
H        0.91800000      -2.39920000       1.92180000
H       -0.47510000      -4.40950000       0.58200000
H       -2.67660000      -4.85450000      -0.59300000
H       -2.70000000      -3.11890000      -1.16840000
H       -0.61770000      -3.48900000      -2.18880000
