17
Properties=species:S:1:pos:R:3 gdb_13383=T pbc="F F F"
O       -0.17370000       1.47190000      -0.05220000
C        0.03050000       0.06610000      -0.06250000
C       -1.34060000      -0.57760000       0.09400000
C       -1.29100000      -2.06980000       0.10150000
N       -0.25310000      -2.79450000      -0.00650000
C       -0.70500000      -4.19190000       0.05540000
C       -2.24460000      -4.09840000       0.22390000
O       -2.50350000      -2.67790000       0.24010000
H        0.68270000       1.89730000      -0.15030000
H        0.49330000      -0.27320000      -0.99960000
H        0.68670000      -0.25800000       0.75720000
H       -1.81050000      -0.23220000       1.02240000
H       -2.00180000      -0.24730000      -0.71580000
H       -0.41450000      -4.72060000      -0.85870000
H       -0.22180000      -4.70550000       0.89340000
H       -2.80410000      -4.54080000      -0.60530000
H       -2.60960000      -4.52550000       1.16240000
