23
Properties=species:S:1:pos:R:3 gdb_75517=T pbc="F F F"
C        0.05910000       1.44600000       0.09450000
C        0.01400000      -0.06510000       0.06980000
C        0.04390000      -0.70820000      -1.10280000
C        0.01250000      -2.18880000      -1.40310000
C        1.39000000      -2.87720000      -1.29940000
C        2.07730000      -2.87360000       0.04070000
C        1.60400000      -2.58670000       1.25440000
C        0.20780000      -2.16690000       1.65440000
C       -0.07690000      -0.66380000       1.45860000
H        0.95070000       1.80620000       0.62450000
H        0.06640000       1.87090000      -0.91230000
H       -0.80550000       1.85970000       0.63050000
H        0.12710000      -0.08030000      -1.98940000
H       -0.71630000      -2.71500000      -0.78460000
H       -0.33720000      -2.31710000      -2.43390000
H        1.29360000      -3.91780000      -1.64560000
H        2.06920000      -2.40250000      -2.02160000
H        3.12870000      -3.15480000      -0.01680000
H        2.31490000      -2.63740000       2.07770000
H       -0.55110000      -2.76370000       1.14630000
H        0.07810000      -2.38070000       2.72150000
H        0.61620000      -0.10100000       2.10060000
H       -1.07510000      -0.44090000       1.86620000
