17
Properties=species:S:1:pos:R:3 gdb_43147=T pbc="F F F"
O        0.00380000       0.03160000       0.09110000
C       -0.01360000       1.22590000       0.02220000
C       -1.16720000       2.24030000       0.01490000
C       -0.68850000       3.09040000       1.21310000
O        0.76420000       3.05400000       1.13270000
C        1.10510000       2.27820000      -0.03240000
C        0.71450000       3.08020000      -1.26670000
C       -0.05820000       2.37700000      -2.35950000
C       -0.81290000       3.04890000      -1.24080000
H       -2.17270000       1.83080000       0.09020000
H       -1.02870000       4.13090000       1.15650000
H       -1.00080000       2.66520000       2.17390000
H        2.13080000       1.92730000       0.06020000
H        1.26240000       3.98890000      -1.48480000
H       -0.08080000       2.87870000      -3.32020000
H       -0.03850000       1.29390000      -2.43340000
H       -1.39480000       3.93980000      -1.44920000
