16
Properties=species:S:1:pos:R:3 gdb_111378=T pbc="F F F"
C        0.03300000       1.32090000       0.14320000
O       -0.04790000      -0.01010000      -0.34180000
C       -1.26370000      -0.62180000      -0.11440000
C       -1.39850000      -2.02300000      -0.70570000
O       -0.49280000      -2.88760000      -0.01660000
C       -1.73830000      -2.61050000       0.60220000
C       -1.59210000      -1.25780000       1.32920000
C       -0.57000000      -1.17850000       2.35590000
N        0.23560000      -1.09470000       3.18080000
H        1.01750000       1.69900000      -0.13700000
H       -0.74130000       1.95700000      -0.31110000
H       -0.06500000       1.36000000       1.23520000
H       -2.11050000       0.01820000      -0.40600000
H       -1.69130000      -2.30390000      -1.70970000
H       -2.38480000      -3.43850000       0.86410000
H       -2.54070000      -0.87680000       1.71580000
