18
Properties=species:S:1:pos:R:3 gdb_96959=T pbc="F F F"
C       -0.01400000       1.31880000      -0.06850000
N        0.25010000      -0.11570000      -0.09130000
C        0.59110000      -0.68870000       0.97050000
O        0.73490000      -0.19060000       2.25770000
C        0.95910000      -1.53910000       2.78230000
C       -0.37200000      -2.21770000       3.16640000
C       -0.43440000      -2.87870000       1.74030000
O       -1.56170000      -2.70890000       0.93450000
C        0.87420000      -2.12260000       1.34470000
H        0.76680000       1.83590000      -0.63760000
H       -0.96240000       1.51410000      -0.57880000
H       -0.05560000       1.74820000       0.93890000
H        1.82570000      -1.57620000       3.43930000
H       -0.29910000      -2.94120000       3.98130000
H       -1.17100000      -1.50620000       3.38390000
H       -0.25280000      -3.95480000       1.81170000
H       -1.49770000      -1.84860000       0.49920000
H        1.65970000      -2.64680000       0.80490000
