16
Properties=species:S:1:pos:R:3 gdb_82358=T pbc="F F F"
O       -0.19380000       1.44410000      -0.01590000
C       -0.02800000       0.05050000      -0.05230000
C       -1.37160000      -0.64360000       0.01570000
O       -2.07680000      -0.65160000      -1.22830000
C       -1.35290000      -1.82570000      -0.85010000
C       -0.01010000      -1.93840000      -1.54510000
C        0.62340000      -0.52490000      -1.36430000
C        0.40110000       0.34790000      -2.51570000
N        0.29750000       1.03180000      -3.44140000
H        0.66040000       1.87190000      -0.13570000
H        0.57660000      -0.30130000       0.80070000
H       -1.98140000      -0.55490000       0.91020000
H       -1.95180000      -2.71080000      -0.65340000
H        0.60560000      -2.69260000      -1.04350000
H       -0.09600000      -2.22060000      -2.59710000
H        1.70740000      -0.60670000      -1.23850000
