14
Properties=species:S:1:pos:R:3 gdb_31188=T pbc="F F F"
O        0.36900000       0.99410000      -0.68010000
C       -0.03100000       0.06750000       0.30880000
C       -1.39420000      -0.50310000       0.06110000
C       -2.17930000      -0.73130000      -1.03920000
C       -1.86770000      -0.46080000      -2.45230000
O       -2.61250000      -0.70820000      -3.37050000
N       -3.38320000      -1.30360000      -0.62000000
C       -3.26710000      -1.39300000       0.65510000
O       -2.08730000      -0.92300000       1.15490000
H       -0.23830000       1.74180000      -0.65470000
H        0.72080000      -0.73030000       0.28890000
H       -0.01370000       0.49530000       1.32190000
H       -0.87130000      -0.00280000      -2.60840000
H       -3.96930000      -1.78310000       1.37530000
