20
Properties=species:S:1:pos:R:3 gdb_99198=T pbc="F F F"
C        0.63240000       1.12980000       0.46930000
C       -0.19320000       0.07480000      -0.26840000
C        0.50760000      -0.41900000      -1.53310000
O        1.25690000       0.28620000      -2.18710000
N        0.20380000      -1.70030000      -1.89390000
C        0.79170000      -2.33380000      -3.06850000
C        1.27010000      -3.68370000      -2.78780000
C        1.64160000      -4.80460000      -2.55340000
C        2.10830000      -6.15550000      -2.27700000
H        1.55280000       0.69800000       0.87370000
H        0.91660000       1.92830000      -0.21870000
H        0.06320000       1.55860000       1.29870000
H       -0.43520000      -0.76910000       0.38830000
H       -1.15320000       0.50520000      -0.58310000
H       -0.37510000      -2.26460000      -1.29450000
H        0.06720000      -2.36090000      -3.89500000
H        1.60700000      -1.67630000      -3.38740000
H        3.07880000      -6.34270000      -2.74960000
H        2.22900000      -6.31970000      -1.20060000
H        1.40540000      -6.90780000      -2.65120000
