18
Properties=species:S:1:pos:R:3 gdb_53426=T pbc="F F F"
C        0.10700000       1.56540000      -0.31870000
C        0.07380000       0.12550000      -0.10940000
C        0.04210000      -1.06730000       0.05200000
C       -0.00670000      -2.49550000       0.28550000
C        0.42820000      -2.98680000       1.69310000
N       -0.21340000      -4.29550000       1.89350000
C       -1.52950000      -4.18980000       1.26020000
C       -1.42260000      -3.12640000       0.15420000
O       -2.26700000      -2.83880000      -0.64650000
H        0.83220000       1.83860000      -1.09320000
H       -0.87250000       1.94170000      -0.63390000
H        0.38650000       2.09520000       0.59870000
H        0.60800000      -3.02180000      -0.46260000
H        1.51100000      -3.06500000       1.80250000
H        0.06270000      -2.28310000       2.44990000
H        0.33020000      -5.00570000       1.41340000
H       -1.88620000      -5.14370000       0.86430000
H       -2.27920000      -3.83950000       1.98440000
