19
Properties=species:S:1:pos:R:3 gdb_36446=T pbc="F F F"
C       -0.02290000      -1.18770000      -0.28730000
C        0.00660000      -0.02540000       0.01800000
C        0.08250000       1.38790000       0.37000000
C        1.46580000       1.98730000       0.08400000
C        1.83510000       2.17610000      -1.40440000
O        1.86920000       3.61590000      -1.25980000
C        1.57480000       3.51170000       0.13320000
C        0.73730000       4.52940000       0.83660000
C        2.22610000       4.40060000       1.13900000
H       -0.06390000      -2.21530000      -0.55140000
H       -0.67700000       1.95070000      -0.18720000
H       -0.16030000       1.51590000       1.43290000
H        2.22670000       1.46440000       0.66780000
H        2.80820000       1.77500000      -1.70750000
H        1.07120000       1.85440000      -2.12150000
H        0.41930000       5.38670000       0.25300000
H        0.02410000       4.20180000       1.58650000
H        2.52760000       3.97730000       2.09210000
H        2.88120000       5.17610000       0.75690000
