18
Properties=species:S:1:pos:R:3 gdb_69405=T pbc="F F F"
C       -0.05730000       1.56400000       0.01670000
C        0.03060000       0.05650000       0.00030000
C       -0.81400000      -0.79020000       0.93760000
C        0.68430000      -0.77350000       1.09540000
C        1.47860000      -1.90680000       0.42510000
C        1.15020000      -1.73160000      -1.05620000
C        0.38880000      -0.65780000      -1.26380000
C        2.92050000      -1.81140000       0.68240000
N        4.05560000      -1.73270000       0.88580000
H        0.87260000       2.02080000      -0.33850000
H       -0.87210000       1.91860000      -0.62500000
H       -0.24910000       1.93510000       1.02790000
H       -1.38330000      -0.27230000       1.70350000
H       -1.29480000      -1.67720000       0.53790000
H        1.10840000      -0.30450000       1.97450000
H        1.15200000      -2.89040000       0.78860000
H        1.49890000      -2.43280000      -1.80360000
H        0.02680000      -0.33230000      -2.23320000
