11
Properties=species:S:1:pos:R:3 gdb_5482=T pbc="F F F"
O        0.11510000       1.35340000       0.00690000
C        0.07730000       0.02150000      -0.03430000
C        0.02080000      -0.78170000      -1.14990000
O       -0.00020000      -2.08220000      -0.67240000
C        0.04390000      -1.96340000       0.65210000
N        0.09140000      -0.74260000       1.10490000
C       -0.01530000      -0.50810000      -2.56720000
O       -0.06530000      -1.34380000      -3.44400000
H        0.15090000       1.61330000       0.93700000
H        0.03670000      -2.87460000       1.23050000
H        0.00780000       0.58040000      -2.78670000
