17
Properties=species:S:1:pos:R:3 gdb_84797=T pbc="F F F"
C       -0.03310000       1.51160000      -0.19250000
C       -0.10670000      -0.00360000       0.00210000
N        0.46650000      -0.73950000      -1.14980000
H        0.33110000      -0.36740000      -2.07910000
C        1.71860000      -1.16150000      -0.78090000
N        1.99670000      -1.13700000       0.46940000
C        0.79740000      -0.59340000       1.13660000
C        1.18760000       0.37340000       2.25900000
O        2.49690000       0.37010000       2.53960000
O        0.39220000       1.05350000       2.85200000
H        1.00340000       1.84240000      -0.31900000
H       -0.59960000       1.80880000      -1.08170000
H       -0.45300000       2.02390000       0.67460000
H       -1.14570000      -0.30510000       0.15020000
H        2.40810000      -1.52480000      -1.53750000
H        2.90930000      -0.24890000       1.90200000
H        0.26310000      -1.41950000       1.62560000
