21
Properties=species:S:1:pos:R:3 gdb_6551=T pbc="F F F"
C        3.26990000      -0.23950000      -0.39210000
C        2.04710000      -1.06400000      -0.06650000
N        2.14040000      -2.03030000       1.03530000
C        1.19090000      -0.90990000       1.14960000
C        1.37880000       0.14810000       2.25490000
C        0.06760000       0.26850000       3.04940000
C        2.53540000      -0.17450000       3.20020000
O        1.69530000       1.42800000       1.68380000
H        3.76770000       0.12350000       0.50580000
H        3.98220000      -0.84020000      -0.96870000
H        2.99600000       0.63190000      -0.99570000
H        1.50480000      -1.39890000      -0.95210000
H        1.65360000      -2.89380000       0.81260000
H        0.14180000      -1.15980000       0.98610000
H       -0.19520000      -0.68090000       3.52820000
H        0.16350000       1.03600000       3.82180000
H       -0.76210000       0.55020000       2.38940000
H        3.47590000      -0.28530000       2.65990000
H        2.64020000       0.63440000       3.92890000
H        2.34730000      -1.11170000       3.72890000
H        1.02010000       1.63090000       1.02750000
