20
Properties=species:S:1:pos:R:3 gdb_19012=T pbc="F F F"
C       -0.12480000       1.54990000      -0.02520000
C        0.02320000       0.02730000       0.00170000
C        0.93540000      -0.55440000      -1.12340000
C        1.97780000      -1.28110000      -0.27590000
C        1.26590000      -1.96180000       0.93960000
C        2.51990000      -1.69850000       1.80470000
C        2.32080000      -0.40830000       0.97550000
C        0.77800000      -0.50540000       1.22470000
H        0.85300000       2.04260000       0.02290000
H       -0.61960000       1.88450000      -0.94330000
H       -0.71940000       1.90780000       0.82270000
H       -0.97610000      -0.42310000      -0.04450000
H        0.39920000      -1.23190000      -1.79620000
H        1.38160000       0.23370000      -1.74090000
H        2.78620000      -1.81650000      -0.77920000
H        0.64580000      -2.86090000       0.91060000
H        2.36610000      -1.61960000       2.88510000
H        3.40840000      -2.29610000       1.57910000
H        2.93300000       0.49600000       0.99150000
H        0.38980000      -0.26510000       2.21780000
