12
Properties=species:S:1:pos:R:3 gdb_132458=T pbc="F F F"
N        0.04880000       1.32070000       0.10600000
C       -0.06360000      -0.02420000       0.03640000
N       -1.21900000      -0.61490000       0.02040000
C       -1.17990000      -1.98130000      -0.00330000
C       -0.03140000      -2.69920000      -0.01720000
F       -0.02740000      -4.03080000      -0.04200000
C        1.25650000      -2.05210000      -0.01140000
O        2.35500000      -2.52070000      -0.02910000
O        1.13440000      -0.63340000       0.01740000
H        0.94090000       1.74470000      -0.08090000
H       -0.78890000       1.85860000      -0.03510000
H       -2.13600000      -2.49620000      -0.01350000
