20
Properties=species:S:1:pos:R:3 gdb_92101=T pbc="F F F"
O        0.10920000       1.46540000      -0.04620000
C        0.08380000       0.03680000       0.09710000
C       -1.37780000      -0.36430000       0.34160000
N       -2.37800000      -0.23990000      -0.71000000
C       -2.12510000       0.52300000      -1.93200000
C       -2.23180000      -0.96350000      -1.96400000
C       -1.06360000      -1.88730000      -2.26990000
C        0.34310000      -1.40440000      -2.01830000
C        0.81240000      -0.62980000      -1.04110000
H        1.01030000       1.72560000      -0.26410000
H        0.61890000      -0.22970000       1.02660000
H       -1.39030000      -1.40410000       0.69030000
H       -1.71630000       0.25400000       1.18130000
H       -2.95690000       1.13490000      -2.27410000
H       -1.14710000       0.96910000      -2.06740000
H       -3.17310000      -1.38950000      -2.31440000
H       -1.21700000      -2.83040000      -1.72140000
H       -1.14170000      -2.16880000      -3.32760000
H        1.07220000      -1.78050000      -2.73420000
H        1.88480000      -0.42700000      -1.04280000
