20
Properties=species:S:1:pos:R:3 gdb_53960=T pbc="F F F"
C        0.06900000       1.57830000      -0.03330000
C       -0.00140000       0.04740000       0.01730000
O        0.71100000      -0.34000000       1.19460000
C       -1.45150000      -0.42620000       0.02990000
C       -1.89940000      -1.65880000       0.77480000
C       -2.30220000      -0.28630000       1.26050000
C        0.68600000      -0.49330000      -1.26320000
N        1.93440000      -0.99820000      -1.06090000
O        0.14160000      -0.44930000      -2.35010000
H        1.11010000       1.91450000      -0.02300000
H       -0.40780000       1.94020000      -0.94660000
H       -0.44370000       2.00060000       0.83420000
H        0.60530000      -1.29270000       1.29780000
H       -1.93030000      -0.26160000      -0.92830000
H       -2.64210000      -2.29050000       0.30090000
H       -1.19350000      -2.21200000       1.38780000
H       -1.81500000       0.07030000       2.16160000
H       -3.33360000       0.02810000       1.14740000
H        2.38540000      -0.84590000      -0.17420000
H        2.48590000      -1.23340000      -1.87000000
