17
Properties=species:S:1:pos:R:3 gdb_102231=T pbc="F F F"
C       -0.06080000       1.38480000      -0.16960000
C        0.02130000      -0.10030000       0.02530000
N        0.17170000      -0.63350000       1.15900000
O       -0.09590000      -0.72480000      -1.20180000
C       -0.14310000      -2.14550000      -1.26010000
C       -0.63320000      -2.48390000      -2.67760000
O        0.23130000      -1.99240000      -3.66650000
C        1.17620000      -2.74360000      -0.98460000
N        2.19500000      -3.23780000      -0.75740000
H        0.74900000       1.72320000      -0.82350000
H       -1.00520000       1.65550000      -0.65140000
H        0.01780000       1.88070000       0.79640000
H        0.24880000      -1.64860000       1.14610000
H       -0.86140000      -2.53320000      -0.52480000
H       -0.67740000      -3.57040000      -2.79340000
H       -1.65300000      -2.08130000      -2.76980000
H        0.30740000      -1.04050000      -3.53360000
