21
Properties=species:S:1:pos:R:3 gdb_103486=T pbc="F F F"
C       -0.03070000       1.74950000       0.50600000
C       -0.01110000       0.30920000       0.02440000
C       -1.35150000      -0.09210000      -0.57270000
O       -1.31400000      -1.44040000      -1.01690000
C        1.21290000      -0.31730000      -0.60890000
C        2.56480000       0.32860000      -0.37730000
O        2.68140000       0.54350000       1.02990000
C        1.84300000      -0.38300000       1.72150000
C        0.74330000      -0.78020000       0.75640000
H        0.92480000       2.04990000       0.93650000
H       -0.25970000       2.43080000      -0.32260000
H       -0.80680000       1.89150000       1.26800000
H       -2.13580000       0.04700000       0.19030000
H       -1.58600000       0.58880000      -1.40800000
H       -2.17380000      -1.65810000      -1.38660000
H        1.07890000      -0.95040000      -1.47700000
H        3.36070000      -0.34090000      -0.74120000
H        2.69610000       1.30380000      -0.86060000
H        2.40980000      -1.27830000       2.02360000
H        1.49510000       0.11980000       2.63140000
H        0.27060000      -1.74730000       0.87330000
