18
Properties=species:S:1:pos:R:3 gdb_32743=T pbc="F F F"
C       -0.14380000       1.45130000      -0.11310000
C        0.31200000      -0.00290000      -0.08210000
N        0.40900000      -0.47760000       1.30290000
C        0.70740000      -1.80120000       1.53220000
C        1.50870000      -2.42970000       2.43820000
N        2.35220000      -1.78290000       3.36910000
N        1.34590000      -3.80950000       2.29260000
C        0.49870000      -3.93760000       1.33240000
O        0.04850000      -2.75310000       0.81370000
H        0.57630000       2.10240000       0.39570000
H       -0.23530000       1.80150000      -1.14510000
H       -1.11190000       1.56420000       0.38280000
H       -0.41520000      -0.63700000      -0.59680000
H        1.26880000      -0.11250000      -0.61830000
H        1.01170000       0.09870000       1.87990000
H        2.04010000      -1.94730000       4.32280000
H        3.29770000      -2.15090000       3.31180000
H        0.11180000      -4.83410000       0.87610000
