18
Properties=species:S:1:pos:R:3 gdb_74955=T pbc="F F F"
C        0.04910000       1.50230000      -0.02780000
C       -0.04880000       0.00840000       0.00460000
N       -1.16300000      -0.60510000      -0.03530000
C       -1.09560000      -2.07290000      -0.02540000
C       -0.71100000      -2.57370000       1.37250000
O        0.72980000      -2.42660000       1.42030000
C        1.16760000      -2.01110000       0.16010000
C        0.13090000      -2.54090000      -0.82470000
O        1.18890000      -0.56780000       0.07960000
H        0.64850000       1.82280000      -0.88610000
H       -0.94880000       1.93400000      -0.09250000
H        0.55420000       1.86710000       0.87220000
H       -2.04730000      -2.47940000      -0.37110000
H       -1.15820000      -1.97430000       2.16920000
H       -0.96910000      -3.63000000       1.52150000
H        2.20460000      -2.31590000       0.02350000
H        0.19140000      -3.63000000      -0.89880000
H        0.20420000      -2.09520000      -1.81760000
