22
Properties=species:S:1:pos:R:3 gdb_22115=T pbc="F F F"
C       -1.74650000       0.00540000      -1.07670000
C       -0.51460000      -0.40590000      -0.24760000
C        0.70750000      -0.59080000      -1.11670000
C        1.10420000      -1.96950000      -1.59120000
C        2.15520000      -2.65770000      -0.70260000
C        1.69710000      -2.91240000       0.73310000
O        2.45800000      -3.88160000      -1.36690000
N        1.45160000       0.36660000      -1.52530000
O        1.02330000       1.61710000      -1.04040000
H       -1.56220000       0.95580000      -1.58230000
H       -1.98500000      -0.74660000      -1.83570000
H       -2.62210000       0.12070000      -0.43070000
H       -0.31040000       0.36770000       0.49800000
H       -0.72520000      -1.33840000       0.28420000
H        0.21960000      -2.61470000      -1.64820000
H        1.53080000      -1.90160000      -2.59470000
H        3.04250000      -2.00520000      -0.68290000
H        2.48000000      -3.43430000       1.29610000
H        1.48680000      -1.97680000       1.25990000
H        0.79780000      -3.53690000       0.74680000
H        3.11060000      -4.35210000      -0.83880000
H        1.67380000       2.21260000      -1.42620000
