15
Properties=species:S:1:pos:R:3 gdb_128805=T pbc="F F F"
C        0.42670000       0.66260000      -0.40350000
O       -0.34730000       0.23330000       0.70530000
C        0.37460000      -0.49560000       1.67710000
C        0.49690000      -1.95000000       1.27770000
N       -0.40700000      -2.81720000       1.73510000
C       -0.22660000      -4.05090000       1.28300000
N        0.73540000      -4.44090000       0.43970000
N        1.59450000      -3.52630000       0.02570000
N        1.49890000      -2.27790000       0.44370000
H        0.83080000      -0.17620000      -0.98270000
H       -0.24160000       1.25040000      -1.03640000
H        1.26620000       1.29490000      -0.07890000
H        1.37790000      -0.07520000       1.83190000
H       -0.19930000      -0.44010000       2.60500000
H       -0.91260000      -4.82520000       1.61690000
