23
Properties=species:S:1:pos:R:3 gdb_118479=T pbc="F F F"
C        0.02670000       0.66350000       1.09460000
O        0.13980000      -0.68140000       0.69610000
C        0.62550000      -0.82690000      -0.62170000
C        0.68950000      -2.31470000      -0.97070000
C       -0.71940000      -2.91060000      -0.99410000
O       -0.58710000      -4.33590000      -0.89560000
C        1.45900000      -2.52940000      -2.30130000
C        2.97680000      -2.52270000      -2.09620000
O        1.07430000      -3.71620000      -2.98160000
H        0.99940000       1.18000000       1.06900000
H       -0.67360000       1.22330000       0.45410000
H       -0.34960000       0.67100000       2.12040000
H       -0.03480000      -0.29860000      -1.33340000
H        1.62290000      -0.36760000      -0.71200000
H        1.22730000      -2.82120000      -0.15870000
H       -1.29240000      -2.52240000      -0.14430000
H       -1.23350000      -2.63230000      -1.92530000
H       -1.44800000      -4.73360000      -1.05700000
H        1.19680000      -1.69970000      -2.97780000
H        3.27200000      -3.34600000      -1.43670000
H        3.47880000      -2.66160000      -3.05740000
H        3.33130000      -1.58430000      -1.65620000
H        0.66690000      -4.31090000      -2.33560000
