17
Properties=species:S:1:pos:R:3 gdb_106980=T pbc="F F F"
N        0.11030000       1.31450000      -0.09490000
C       -0.00150000      -0.05310000      -0.03050000
N       -1.11410000      -0.68690000       0.00820000
C       -0.83790000      -2.11050000       0.24250000
C        0.68150000      -2.27550000       0.25000000
C        1.37670000      -3.41610000       0.93900000
O        1.04880000      -4.65960000       0.33960000
O        1.26890000      -1.87290000      -1.00710000
C        1.22440000      -0.92060000       0.07200000
H        0.90720000       1.67780000      -0.59570000
H       -0.75640000       1.78930000      -0.30740000
H       -1.26710000      -2.42490000       1.20270000
H       -1.30690000      -2.72300000      -0.53480000
H        2.46190000      -3.23700000       0.93680000
H        1.04520000      -3.48430000       1.98050000
H        1.33370000      -4.61250000      -0.57990000
H        2.18210000      -0.56460000       0.44270000
