16
Properties=species:S:1:pos:R:3 gdb_75660=T pbc="F F F"
C       -0.09440000       1.61330000       0.04340000
C        0.06400000       0.09980000       0.03240000
C        1.12130000      -0.59050000      -0.87550000
O        1.27590000      -0.62070000      -2.06050000
C        1.76560000      -1.31450000       0.27890000
C        2.18500000      -0.29210000       1.31590000
C        0.72820000      -0.63590000       1.22630000
C        0.01090000      -1.25200000       2.29340000
N       -0.58800000      -1.74050000       3.15500000
H        0.83400000       2.12300000       0.31590000
H       -0.38480000       1.95960000      -0.95290000
H       -0.87100000       1.92090000       0.74990000
H       -0.89480000      -0.37970000      -0.19940000
H        2.14380000      -2.32860000       0.29610000
H        2.71850000      -0.70890000       2.16290000
H        2.52360000       0.69340000       1.01370000
