20
Properties=species:S:1:pos:R:3 gdb_74904=T pbc="F F F"
C       -0.05110000       1.59290000      -0.47740000
C        0.01150000       0.16290000      -0.00320000
C       -1.01100000      -0.67460000      -0.19940000
C       -1.17820000      -2.08700000       0.22350000
N       -0.39150000      -3.16550000      -0.44180000
C       -0.21080000      -2.91770000       0.98990000
C        1.15350000      -2.44150000       1.44450000
O        1.76360000      -1.50870000       0.59040000
C        1.30530000      -0.18080000       0.70730000
H        0.71540000       1.79050000      -1.23800000
H       -1.02730000       1.83710000      -0.90290000
H        0.14300000       2.29260000       0.34670000
H       -1.87590000      -0.27920000      -0.73050000
H       -2.22410000      -2.33230000       0.40740000
H       -0.98190000      -3.98080000      -0.58830000
H       -0.65030000      -3.63220000       1.68890000
H        1.07010000      -2.03890000       2.46960000
H        1.83110000      -3.30300000       1.48180000
H        2.10500000       0.44070000       0.28650000
H        1.22100000       0.10140000       1.77380000
