14
Properties=species:S:1:pos:R:3 gdb_133790=T pbc="F F F"
C        0.06300000       1.49940000      -0.17170000
C        0.02480000      -0.00790000      -0.02870000
O        0.67650000      -0.57450000      -1.19460000
C        0.73600000      -1.90090000      -1.23880000
O        0.31300000      -2.67390000      -0.42640000
C        1.45740000      -2.33730000      -2.53790000
F        1.52580000      -3.65910000      -2.60160000
F        0.79810000      -1.88850000      -3.61070000
F        2.69800000      -1.84020000      -2.57170000
H        1.09340000       1.86090000      -0.22440000
H       -0.46350000       1.81970000      -1.07470000
H       -0.42170000       1.96120000       0.69330000
H        0.55420000      -0.35540000       0.86330000
H       -0.99670000      -0.39650000       0.01640000
