15
Properties=species:S:1:pos:R:3 gdb_32390=T pbc="F F F"
C       -0.01410000       1.40080000       0.01400000
O        0.00350000      -0.02370000      -0.00270000
C        0.62390000      -0.61310000       1.03440000
C        0.75220000      -1.97750000       1.20620000
N        1.44620000      -2.10600000       2.38610000
C        1.70350000      -0.85430000       2.86560000
N        1.20560000       0.07340000       2.04960000
C        2.40570000      -0.63800000       4.06980000
C        3.00770000      -0.48330000       5.10140000
H        1.00120000       1.80980000       0.00320000
H       -0.54930000       1.70050000      -0.88840000
H       -0.53030000       1.78030000       0.90170000
H        0.42590000      -2.81880000       0.62140000
H        1.72200000      -2.96710000       2.82750000
H        3.53700000      -0.33160000       6.00920000
