20
Properties=species:S:1:pos:R:3 gdb_118663=T pbc="F F F"
O       -0.13760000       1.47750000       0.05910000
C        0.01620000       0.07210000      -0.04630000
C       -1.38040000      -0.53660000       0.00850000
C       -1.39020000      -2.07960000      -0.01580000
C       -2.81900000      -2.64190000       0.13990000
C       -2.87790000      -4.16310000       0.21780000
O       -4.23380000      -4.51690000       0.43320000
C       -0.75890000      -2.58750000      -1.24160000
N       -0.26680000      -2.98420000      -2.20990000
H        0.72290000       1.88600000      -0.07170000
H        0.51140000      -0.21050000      -0.98690000
H        0.62840000      -0.32690000       0.78020000
H       -1.87110000      -0.20660000       0.93010000
H       -1.97190000      -0.14940000      -0.82770000
H       -0.78090000      -2.44360000       0.82350000
H       -3.25120000      -2.22650000       1.05630000
H       -3.44320000      -2.30250000      -0.69330000
H       -2.48920000      -4.60140000      -0.71320000
H       -2.23550000      -4.51850000       1.04140000
H       -4.30680000      -5.47460000       0.38750000
