18
Properties=species:S:1:pos:R:3 gdb_74369=T pbc="F F F"
C        0.04000000       1.48240000      -0.05870000
C       -0.05700000      -0.01280000       0.02600000
N       -1.17960000      -0.60690000      -0.02950000
C       -1.20350000      -2.07650000       0.00980000
C        0.14890000      -2.68800000      -0.41140000
C        1.24680000      -1.97800000       0.36250000
O        1.18100000      -0.56040000       0.15230000
C       -1.61260000      -2.54630000       1.33690000
C       -1.92330000      -2.94830000       2.42630000
H        0.68960000       1.77190000      -0.89080000
H       -0.95330000       1.90590000      -0.19870000
H        0.48810000       1.88320000       0.85610000
H       -1.97260000      -2.39240000      -0.70620000
H        0.17620000      -3.76320000      -0.21560000
H        0.29060000      -2.53070000      -1.48590000
H        1.14680000      -2.17810000       1.43630000
H        2.24670000      -2.27910000       0.04190000
H       -2.21530000      -3.29310000       3.38730000
