14
Properties=species:S:1:pos:R:3 gdb_29142=T pbc="F F F"
C        0.02000000       1.51590000       0.23100000
C       -0.01230000       0.03980000      -0.03060000
C       -1.14590000      -0.61450000      -0.34330000
O       -1.16410000      -1.96490000      -0.58070000
C       -0.02240000      -2.67930000      -0.50370000
O        0.00670000      -3.87180000      -0.70520000
C        1.18750000      -1.89420000      -0.15500000
O        2.30200000      -2.62130000      -0.08520000
N        1.20050000      -0.63030000       0.06640000
H        0.69860000       2.01160000      -0.47090000
H       -0.97200000       1.96340000       0.13410000
H        0.39790000       1.71520000       1.23900000
H       -2.12950000      -0.17880000      -0.44080000
H        2.03520000      -3.53520000      -0.29040000
