20
Properties=species:S:1:pos:R:3 gdb_36843=T pbc="F F F"
C       -0.04540000       1.60110000      -0.21060000
N       -0.16990000       0.15340000      -0.31670000
C       -0.12600000      -0.58100000       0.94520000
C       -1.40610000      -0.42550000       0.20290000
C        1.39550000       2.01490000      -0.14620000
C        2.61000000       1.54340000      -0.98870000
C        3.11310000       2.39030000       0.20120000
C        2.01040000       3.43820000      -0.07630000
O        2.16830000       1.66940000       1.08480000
H       -0.50230000       2.05610000      -1.09840000
H       -0.56310000       2.01270000       0.67540000
H        0.41570000      -1.52170000       0.92090000
H        0.00190000      -0.00740000       1.86000000
H       -2.14920000       0.25020000       0.62420000
H       -1.81730000      -1.24920000      -0.37360000
H        2.82290000       0.47680000      -0.92800000
H        2.72190000       1.94960000      -1.99740000
H        4.12810000       2.53660000       0.56990000
H        2.06750000       4.01940000      -1.00060000
H        1.70820000       4.03210000       0.78750000
