19
Properties=species:S:1:pos:R:3 gdb_54420=T pbc="F F F"
C       -0.99750000       0.88530000       0.15730000
C        0.28830000       0.11150000      -0.04230000
O        1.24080000       0.21390000       0.70270000
C        0.37520000      -0.79980000      -1.21450000
C        1.63640000      -1.45590000      -1.78400000
C        0.75640000      -2.66320000      -2.24990000
C       -0.47370000      -1.96010000      -1.64750000
C       -1.70740000      -2.59790000      -1.09650000
O       -0.58050000      -0.69090000      -2.28700000
H       -1.20840000       1.49990000      -0.72320000
H       -1.84800000       0.20520000       0.27160000
H       -0.90510000       1.51110000       1.04560000
H        2.13770000      -0.87980000      -2.56440000
H        2.34890000      -1.71880000      -1.00180000
H        0.69040000      -2.84190000      -3.32580000
H        1.01120000      -3.59510000      -1.73990000
H       -1.45050000      -3.37630000      -0.37160000
H       -2.35510000      -1.86340000      -0.61310000
H       -2.27810000      -3.06860000      -1.90580000
