13
Properties=species:S:1:pos:R:3 gdb_132630=T pbc="F F F"
N       -0.00940000       1.40910000       0.16180000
C        0.01370000       0.02030000       0.05290000
C       -1.16570000      -0.73270000       0.02770000
N       -1.18570000      -2.06730000      -0.01260000
C       -0.05210000      -2.71490000      -0.03280000
F       -0.08360000      -4.04470000      -0.07620000
C        1.18530000      -2.06880000      -0.01520000
F        2.31100000      -2.77810000      -0.04210000
C        1.22350000      -0.69070000       0.02890000
H        0.79360000       1.88310000      -0.22510000
H       -0.87130000       1.84050000      -0.13930000
H       -2.13210000      -0.23440000       0.04340000
H        2.18310000      -0.18570000       0.04910000
