15
Properties=species:S:1:pos:R:3 gdb_117036=T pbc="F F F"
C        0.00460000       1.40870000       0.04480000
O       -0.00350000      -0.00220000      -0.00930000
C        0.64440000      -0.58800000       1.07340000
C        0.59340000      -2.09680000       0.94280000
O        0.06830000      -2.69270000       0.03450000
C        1.27640000      -2.87730000       2.07900000
O        1.81040000      -2.31570000       3.00170000
C        1.24450000      -4.42340000       1.97950000
O        1.75670000      -5.09640000       2.83190000
H        1.02950000       1.81000000       0.03770000
H       -0.52360000       1.76540000      -0.84150000
H       -0.50810000       1.78410000       0.94360000
H        1.70510000      -0.28700000       1.15170000
H        0.19140000      -0.31320000       2.04350000
H        0.73330000      -4.84470000       1.09690000
