16
Properties=species:S:1:pos:R:3 gdb_51056=T pbc="F F F"
O       -0.35490000       0.80420000       0.97780000
C        0.05130000       1.10560000      -0.11440000
C        1.42690000       1.69400000      -0.38250000
C        1.36760000       2.87060000      -1.30140000
C        0.85430000       4.28560000      -1.16180000
C        0.43240000       4.21140000      -2.64890000
C        1.83530000       3.94950000      -3.06180000
C        2.30770000       4.01370000      -1.58810000
N        0.91960000       2.78940000      -2.76780000
H       -0.57120000       0.96420000      -1.02470000
H        1.88930000       1.96030000       0.57300000
H        2.04120000       0.90980000      -0.85040000
H        0.48620000       4.82770000      -0.30250000
H       -0.42800000       4.57260000      -3.19890000
H        2.34260000       4.05720000      -4.01300000
H        3.22730000       4.31250000      -1.10550000
