19
Properties=species:S:1:pos:R:3 gdb_85446=T pbc="F F F"
C        0.30230000       1.48360000      -0.28800000
C       -0.08000000       0.07240000       0.14800000
O        0.16390000      -0.84930000      -0.93480000
C        1.28200000      -1.61060000      -0.70580000
N        1.73420000      -2.47120000      -1.50890000
C        1.87100000      -1.25260000       0.64180000
C        0.74400000      -0.48710000       1.30790000
C        0.80350000       0.15790000       2.63540000
N        0.09490000      -1.12620000       2.46180000
H        1.37820000       1.55840000      -0.47340000
H       -0.22360000       1.74660000      -1.20970000
H        0.03430000       2.21170000       0.48340000
H       -1.15380000       0.02630000       0.36540000
H        1.15790000      -2.51240000      -2.35140000
H        2.16200000      -2.14140000       1.20120000
H        2.76170000      -0.63090000       0.49690000
H        1.71410000       0.10300000       3.22600000
H        0.21790000       1.05990000       2.79900000
H       -0.91010000      -0.96580000       2.43940000
