24
Properties=species:S:1:pos:R:3 gdb_87996=T pbc="F F F"
C       -0.09570000       1.18830000      -0.36960000
N        0.35980000      -0.16380000      -0.08020000
C        1.78930000      -0.34020000       0.18250000
C        0.78640000      -0.46330000       1.27240000
C        0.70810000       0.41240000       2.53230000
C        0.64280000      -0.89760000       3.36940000
C        0.37060000      -1.72430000       2.06700000
C       -1.11480000      -2.04070000       1.87270000
C        1.22990000      -2.96880000       1.87190000
H        0.44650000       1.97000000       0.18690000
H        0.02540000       1.38640000      -1.43940000
H       -1.16050000       1.27380000      -0.12900000
H        2.24850000      -1.21800000      -0.26570000
H        2.42100000       0.54890000       0.19020000
H        1.54660000       1.08380000       2.73130000
H       -0.21740000       0.99430000       2.58650000
H        1.60510000      -1.14700000       3.82420000
H       -0.13020000      -0.94600000       4.14030000
H       -1.74050000      -1.16130000       2.05890000
H       -1.30720000      -2.36960000       0.84700000
H       -1.43690000      -2.83240000       2.55870000
H        0.96620000      -3.74320000       2.60150000
H        1.08740000      -3.39530000       0.87210000
H        2.29430000      -2.74230000       1.99310000
