23
Properties=species:S:1:pos:R:3 gdb_112724=T pbc="F F F"
C        0.46170000       1.34580000      -0.36220000
C        0.11870000      -0.06520000       0.07730000
O        0.79560000      -1.06880000      -0.72230000
C        1.45180000      -1.63910000       0.43840000
C        2.95980000      -1.58020000       0.24470000
O        3.31240000      -2.27410000      -0.93800000
C        0.71440000      -0.65740000       1.39670000
C        1.56470000       0.26460000       2.26970000
C       -0.34450000      -1.36060000       2.24830000
H        1.53810000       1.53330000      -0.32850000
H        0.12490000       1.50030000      -1.39230000
H       -0.04290000       2.08300000       0.27190000
H       -0.96920000      -0.20820000       0.01360000
H        1.15720000      -2.68980000       0.56520000
H        3.30290000      -0.53530000       0.20590000
H        3.47660000      -2.07400000       1.07530000
H        2.73900000      -1.91660000      -1.62790000
H        2.32790000       0.80720000       1.70810000
H        0.93240000       1.00640000       2.77010000
H        2.07320000      -0.30810000       3.05310000
H        0.12130000      -1.96230000       3.03700000
H       -1.00480000      -0.63150000       2.73200000
H       -0.96510000      -2.02640000       1.64020000
