20
Properties=species:S:1:pos:R:3 gdb_106191=T pbc="F F F"
C        0.11080000       1.53920000       0.14090000
C       -0.06260000       0.03300000      -0.07210000
C        0.69370000      -0.50290000      -1.25270000
C        0.87760000      -2.01220000      -1.61400000
C        1.03370000      -1.99900000      -3.11620000
C        0.47160000      -0.69190000      -3.64150000
N        0.76140000       0.22730000      -2.53370000
C        2.01570000      -0.19230000      -1.87210000
C        2.22230000      -1.68870000      -2.23410000
H        1.15740000       1.78940000       0.34400000
H       -0.19610000       2.09220000      -0.75000000
H       -0.48740000       1.88190000       0.99030000
H        0.26010000      -0.51300000       0.82410000
H       -1.12810000      -0.20410000      -0.20310000
H        0.57540000      -2.86360000      -1.02080000
H        0.99980000      -2.92540000      -3.67650000
H        0.96830000      -0.34400000      -4.55330000
H       -0.60850000      -0.72940000      -3.81800000
H        2.77570000       0.54570000      -1.64800000
H        3.14700000      -2.24670000      -2.21130000
