15
Properties=species:S:1:pos:R:3 gdb_18512=T pbc="F F F"
O       -0.06910000      -0.01780000      -0.12470000
C       -0.00880000       1.17250000      -0.17390000
O        1.11290000       1.86020000       0.12140000
C        1.08400000       3.28410000       0.04230000
C        1.58510000       4.06220000       1.28170000
N        2.61480000       4.79460000       0.46040000
C        3.51030000       3.74410000      -0.04580000
C        2.21690000       3.92840000      -0.73400000
H       -0.85150000       1.83160000      -0.46260000
H        0.09590000       3.61570000      -0.29140000
H        0.85240000       4.75740000       1.69460000
H        2.00870000       3.45080000       2.08360000
H        4.38760000       4.14010000      -0.54680000
H        3.68490000       2.85500000       0.55520000
H        2.13740000       4.33260000      -1.73740000
