13
Properties=species:S:1:pos:R:3 gdb_21924=T pbc="F F F"
O        0.22320000       1.16540000      -0.61700000
C       -0.03790000       0.09970000       0.27250000
C       -1.39380000      -0.49870000       0.05100000
C       -2.24490000      -0.46270000      -1.00740000
C       -3.34830000      -1.23420000      -0.54790000
O       -4.45860000      -1.49030000      -1.25490000
N       -3.18260000      -1.69060000       0.67040000
O       -1.92270000      -1.21150000       1.05940000
H       -0.42230000       1.85900000      -0.44390000
H        0.73740000      -0.65100000       0.08050000
H        0.05590000       0.39130000       1.32930000
H       -2.11110000       0.01440000      -1.96200000
H       -5.03670000      -2.03670000      -0.70540000
