20
Properties=species:S:1:pos:R:3 gdb_115191=T pbc="F F F"
C        0.08450000       1.65310000      -0.34130000
C        0.04350000       0.16880000       0.04440000
N        0.59050000      -0.73470000      -0.95880000
C       -0.14290000      -0.91170000      -2.21110000
C        0.29860000      -2.18810000      -2.92570000
C        1.82440000      -2.27000000      -3.08350000
O        2.33180000      -2.86530000      -4.01890000
C        2.56320000      -1.66840000      -1.98790000
C        1.92190000      -1.00860000      -0.98540000
H        1.11250000       1.98200000      -0.52260000
H       -0.49980000       1.85000000      -1.24490000
H       -0.33290000       2.26310000       0.46590000
H        0.60170000       0.00950000       0.97270000
H       -0.99100000      -0.13460000       0.24470000
H       -1.21400000      -0.93700000      -1.98620000
H        0.03630000      -0.04590000      -2.86960000
H       -0.01530000      -3.06700000      -2.34640000
H       -0.16750000      -2.26040000      -3.91080000
H        3.63270000      -1.82600000      -1.93600000
H        2.47190000      -0.65720000      -0.11580000
