17
Properties=species:S:1:pos:R:3 gdb_41462=T pbc="F F F"
C        0.13210000       1.50260000       0.36870000
N        1.49280000       1.53090000      -0.25030000
C        1.30870000       0.16420000      -0.81280000
C        2.04430000      -0.31000000      -2.06080000
C        3.14910000      -1.24400000      -1.41890000
N        2.59940000      -1.74870000      -0.12280000
C        1.67800000      -0.92750000       0.12680000
O        0.55970000      -0.90040000       0.91720000
C       -0.07310000       0.03910000      -0.03830000
H        0.12920000       1.68430000       1.44660000
H       -0.58850000       2.17160000      -0.11540000
H        1.54500000       2.22060000      -0.99180000
H        1.39320000      -0.90260000      -2.70980000
H        2.46030000       0.50840000      -2.65500000
H        3.37340000      -2.10130000      -2.05880000
H        4.08740000      -0.70200000      -1.25290000
H       -1.03600000      -0.34500000      -0.37160000
