21
Properties=species:S:1:pos:R:3 gdb_116472=T pbc="F F F"
O       -0.07080000       1.42630000      -0.02940000
C        0.02140000       0.00750000       0.01370000
C       -1.39500000      -0.55590000      -0.00510000
C       -2.15340000      -0.15910000      -1.28070000
O       -3.47700000      -0.66630000      -1.29240000
C       -3.51120000      -2.07940000      -1.23140000
C       -2.84760000      -2.61010000       0.04240000
C       -1.40770000      -2.08860000       0.16880000
O       -0.52050000      -2.74650000      -0.73770000
H        0.81860000       1.78320000      -0.10390000
H        0.58890000      -0.38600000      -0.84140000
H        0.53590000      -0.33210000       0.92710000
H       -1.94120000      -0.12310000       0.84320000
H       -2.22930000       0.92640000      -1.35540000
H       -1.60410000      -0.51440000      -2.17380000
H       -4.56520000      -2.36750000      -1.27430000
H       -3.02390000      -2.50790000      -2.12800000
H       -3.43010000      -2.27490000       0.90820000
H       -2.84140000      -3.70530000       0.04220000
H       -1.01060000      -2.34250000       1.15800000
H       -0.85550000      -2.62930000      -1.63250000
