18
Properties=species:S:1:pos:R:3 gdb_30341=T pbc="F F F"
C       -0.06480000       1.56150000      -0.02610000
C        0.02640000       0.04240000       0.05650000
C        0.81840000      -0.60590000      -1.11430000
O        1.52190000      -1.73430000      -0.56400000
C        1.61070000      -1.49930000       0.77360000
C        2.21190000      -2.07240000       1.86120000
C        1.73300000      -1.31740000       2.98620000
C        0.87440000      -0.34060000       2.54010000
N        0.83130000      -0.45080000       1.16150000
H        0.93340000       2.00730000      -0.06740000
H       -0.62060000       1.86080000      -0.92040000
H       -0.58970000       1.96940000       0.84250000
H       -0.98610000      -0.38270000       0.11380000
H        0.17950000      -0.96160000      -1.92440000
H        1.54830000       0.11040000      -1.51480000
H        2.89440000      -2.90540000       1.86770000
H        2.01920000      -1.47350000       4.01560000
H        0.33870000       0.43350000       3.06350000
