20
Properties=species:S:1:pos:R:3 gdb_63278=T pbc="F F F"
C       -0.27930000       1.54370000       0.14930000
C       -0.00260000       0.05350000       0.06150000
C       -1.15830000      -0.74560000      -0.51370000
O        1.22790000      -0.18610000      -0.74230000
C        1.88290000      -0.74920000       0.33310000
N        3.04070000      -1.22460000       0.43920000
C        0.73340000      -0.57550000       1.25770000
C        0.78270000      -0.17890000       2.70570000
C        0.26200000      -1.53480000       2.31310000
H        0.59170000       2.07790000       0.53680000
H       -0.52450000       1.94620000      -0.83840000
H       -1.12810000       1.73700000       0.81390000
H       -1.41730000      -0.37930000      -1.51190000
H       -0.89900000      -1.80450000      -0.58760000
H       -2.04440000      -0.64950000       0.12270000
H        3.55110000      -1.16520000      -0.44280000
H        1.76500000      -0.11470000       3.16050000
H        0.06880000       0.56340000       3.04750000
H       -0.80570000      -1.71360000       2.38820000
H        0.88680000      -2.40150000       2.49830000
