23
Properties=species:S:1:pos:R:3 gdb_82301=T pbc="F F F"
C       -0.87590000       1.05750000      -0.03870000
C        0.04000000      -0.16600000      -0.11280000
C        1.03820000      -0.15250000      -1.26220000
C        2.29290000       0.68090000      -1.14910000
C        2.32740000      -0.78700000      -0.79730000
C        2.15720000      -1.18920000       0.65840000
C        0.85950000      -0.49280000       1.17920000
C        1.16880000       0.70790000       2.08210000
O        0.04190000      -1.40590000       1.92420000
H       -0.30880000       1.98780000       0.06750000
H       -1.47170000       1.14060000      -0.95360000
H       -1.57180000       0.97980000       0.80270000
H       -0.59530000      -1.04900000      -0.25460000
H        0.64920000      -0.33950000      -2.25780000
H        2.76890000       0.96970000      -2.08040000
H        2.38640000       1.42840000      -0.36940000
H        2.89140000      -1.45000000      -1.44440000
H        1.99670000      -2.27070000       0.72070000
H        3.02970000      -0.94990000       1.27860000
H        1.75480000       1.48040000       1.57880000
H        0.24630000       1.16160000       2.45220000
H        1.75590000       0.37480000       2.94750000
H        0.45690000      -1.54160000       2.78280000
