21
Properties=species:S:1:pos:R:3 gdb_56676=T pbc="F F F"
C       -0.06610000       1.53660000       0.13670000
C        0.00720000       0.01530000      -0.01250000
C        1.17880000      -0.43570000      -0.94370000
C        2.04770000      -0.69550000       0.31670000
C        0.76310000      -0.64440000       1.18710000
C       -1.40090000      -0.54720000      -0.34800000
N       -2.01070000      -0.08420000      -1.59920000
C       -1.38670000      -2.02160000      -0.37500000
N       -1.34550000      -3.17620000      -0.39960000
H        0.91250000       1.94560000       0.40490000
H       -0.37490000       2.02390000      -0.79420000
H       -0.77150000       1.82400000       0.92570000
H        0.94930000      -1.36360000      -1.47550000
H        1.54410000       0.30070000      -1.66460000
H        2.61430000      -1.62800000       0.33560000
H        2.73420000       0.12760000       0.52970000
H        0.80190000      -0.06300000       2.11210000
H        0.38670000      -1.64370000       1.41750000
H       -2.08060000      -0.25890000       0.46610000
H       -2.16200000       0.91760000      -1.55610000
H       -1.38250000      -0.26180000      -2.37810000
