15
Properties=species:S:1:pos:R:3 gdb_3250=T pbc="F F F"
C       -0.05890000       1.48900000      -0.00700000
C        1.25270000       0.70880000       0.03900000
C       -0.05250000       0.00040000      -0.07970000
O       -0.55100000      -0.82180000       0.99330000
C       -0.93850000      -1.81700000       0.03690000
C       -1.98060000      -1.28980000      -0.89760000
C       -0.51500000      -0.96820000      -1.13860000
H       -0.40090000       1.93510000       0.92060000
H       -0.30000000       2.05440000      -0.90100000
H        1.90610000       0.73980000      -0.82720000
H        1.76300000       0.64530000       0.99390000
H       -0.77170000      -2.85600000       0.29360000
H       -2.40180000      -2.01620000      -1.58610000
H       -2.66580000      -0.51900000      -0.55690000
H        0.01840000      -1.22420000      -2.04370000
