19
Properties=species:S:1:pos:R:3 gdb_56574=T pbc="F F F"
C       -0.01490000       1.59550000       0.03740000
C       -0.02440000       0.05370000       0.05590000
C        0.74510000      -0.46500000       1.18430000
C        1.37740000      -0.89020000       2.11390000
C       -1.46800000      -0.53440000       0.06710000
O       -2.23310000      -0.06350000       1.15360000
C       -2.19070000      -0.25770000      -1.24580000
C       -3.65150000      -0.32870000      -1.33640000
O       -2.98010000       0.94050000      -1.25750000
H        1.01130000       1.96780000      -0.00290000
H       -0.56090000       1.98160000      -0.82770000
H       -0.47920000       1.98570000       0.94640000
H        0.45050000      -0.30810000      -0.86800000
H        1.93400000      -1.26620000       2.93610000
H       -1.37940000      -1.62050000       0.19010000
H       -2.62360000       0.77210000       0.86080000
H       -1.60790000      -0.41840000      -2.15330000
H       -4.12290000      -0.53880000      -2.29410000
H       -4.22070000      -0.59940000      -0.45070000
