17
Properties=species:S:1:pos:R:3 gdb_39930=T pbc="F F F"
C       -0.12550000       1.49250000       0.06600000
O        1.13860000       0.83400000      -0.00370000
C       -0.05120000       0.02410000       0.02920000
C       -0.25730000      -0.85820000       1.21090000
C       -0.58670000      -2.10140000       0.85220000
C       -0.67340000      -2.24670000      -0.64460000
O       -2.03450000      -2.22370000      -1.15690000
C       -1.87190000      -0.87270000      -1.63540000
C       -0.39220000      -0.82190000      -1.18760000
H       -0.34010000       2.00300000       1.00470000
H       -0.42340000       2.03580000      -0.83090000
H       -0.13160000      -0.49480000       2.22440000
H       -0.79620000      -2.91940000       1.53160000
H       -0.12230000      -3.10390000      -1.04570000
H       -2.03690000      -0.80710000      -2.71700000
H       -2.54060000      -0.16620000      -1.12700000
H        0.34140000      -0.70790000      -1.98450000
