20
Properties=species:S:1:pos:R:3 gdb_63673=T pbc="F F F"
C        0.00600000       1.55550000      -0.21870000
C        0.00290000       0.05880000      -0.00250000
O       -1.14670000      -0.57940000      -0.50250000
C        1.29100000      -0.73350000      -0.04130000
C        0.50900000      -0.58360000       1.25650000
C        1.06650000       0.18950000       2.43030000
C        2.01470000      -0.68900000       3.27630000
C        2.58760000       0.03170000       4.41050000
N        3.03150000       0.62030000       5.30050000
H        0.89880000       2.03180000       0.19380000
H       -0.01660000       1.78280000      -1.29170000
H       -0.87670000       2.01230000       0.23980000
H       -1.14300000      -0.48300000      -1.46170000
H        1.27180000      -1.69820000      -0.53540000
H        2.22460000      -0.18670000      -0.13870000
H       -0.06780000      -1.46260000       1.53380000
H        1.61810000       1.07120000       2.09040000
H        0.25470000       0.55500000       3.06920000
H        1.47910000      -1.56700000       3.65560000
H        2.83140000      -1.06650000       2.65060000
