16
Properties=species:S:1:pos:R:3 gdb_45296=T pbc="F F F"
N       -0.06060000       1.26820000       0.19630000
C       -0.03860000       0.02170000      -0.02110000
O        1.11140000      -0.70140000      -0.32230000
C        0.73060000      -2.03570000      -0.62900000
C        1.37480000      -3.23800000       0.09470000
C        0.18070000      -4.17960000       0.17990000
C       -0.99480000      -3.54540000      -0.00140000
C       -0.71630000      -2.13760000      -0.22560000
C       -1.17480000      -0.91310000       0.06050000
H        0.87770000       1.66250000       0.11760000
H        0.84330000      -2.18330000      -1.71320000
H        2.23430000      -3.66610000      -0.42800000
H        1.70590000      -2.94760000       1.10030000
H        0.28680000      -5.23190000       0.41800000
H       -1.97740000      -3.98930000       0.08910000
H       -2.14690000      -0.60140000       0.41120000
