17
Properties=species:S:1:pos:R:3 gdb_49703=T pbc="F F F"
O       -1.04040000       1.21670000       0.00580000
C        0.09680000       1.00290000      -0.33940000
C        1.24780000       1.97010000      -0.24230000
C        1.11660000       3.44220000      -0.81100000
C       -0.06900000       4.03230000      -0.01570000
C        0.26490000       3.49100000       1.41860000
C        1.56590000       2.71380000       1.11910000
C        2.27000000       3.71140000       0.17690000
O        3.30370000       4.30650000       0.16090000
H        0.37260000       0.01630000      -0.77560000
H        2.14870000       1.48990000      -0.63330000
H        1.19510000       3.64920000      -1.87610000
H       -0.07050000       5.12410000      -0.06840000
H       -1.02910000       3.66200000      -0.37340000
H        0.44430000       4.28940000       2.14330000
H       -0.52350000       2.84220000       1.79870000
H        2.08210000       2.21120000       1.93420000
