15
Properties=species:S:1:pos:R:3 gdb_69630=T pbc="F F F"
O       -0.07570000       1.41000000      -0.00560000
C       -0.02130000       0.03460000       0.00410000
C       -0.25330000      -0.84650000      -1.19180000
C       -1.18490000      -0.92980000       0.00150000
C       -0.53470000      -1.69630000       1.19470000
N        0.84100000      -2.14460000       0.81160000
C        0.61590000      -0.74740000       1.20290000
C       -1.22930000      -2.27360000       2.29080000
N       -1.80620000      -2.74370000       3.17860000
H        0.67600000       1.74270000      -0.50970000
H       -0.69850000      -0.31290000      -2.02620000
H        0.41080000      -1.66140000      -1.44940000
H       -2.24590000      -0.73170000      -0.05280000
H        1.23620000      -2.64130000       1.61080000
H        1.10240000      -0.28810000       2.05380000
