20
Properties=species:S:1:pos:R:3 gdb_19819=T pbc="F F F"
C       -0.39810000       1.55740000      -0.02250000
C        0.00480000       0.08910000       0.00990000
C        1.04310000      -0.48070000      -1.02260000
C        1.81130000      -1.17930000       0.14410000
C        3.03380000      -0.47770000       0.78380000
C        2.92270000       1.01520000       0.73770000
C        2.09670000       0.26850000       1.75200000
C        0.87620000      -0.48610000       1.17290000
H        0.45980000       2.22840000       0.06770000
H       -0.91630000       1.79990000      -0.95740000
H       -1.08190000       1.78960000       0.80210000
H       -0.90720000      -0.51610000      -0.04910000
H        0.61260000      -1.16730000      -1.75580000
H        1.61890000       0.27180000      -1.56840000
H        1.88030000      -2.26600000       0.10140000
H        3.97900000      -0.96640000       0.99060000
H        3.76980000       1.54210000       1.16770000
H        2.48800000       1.53160000      -0.11020000
H        2.23250000       0.46270000       2.80990000
H        0.35420000      -1.07250000       1.93120000
