19
Properties=species:S:1:pos:R:3 gdb_88564=T pbc="F F F"
O        0.11420000       1.38990000       0.58730000
C        0.06650000       0.05080000       0.19460000
C       -0.47500000      -1.01840000       1.10060000
C       -1.24500000      -0.62160000      -0.15380000
C       -2.51030000       0.15590000      -0.09860000
C       -3.19910000       0.70070000       1.15170000
C       -3.94650000      -0.20570000       0.22490000
O       -4.47590000       0.52150000      -0.88150000
C       -3.12990000       0.86320000      -1.30950000
H       -0.76530000       1.64850000       0.88200000
H        0.93420000      -0.18450000      -0.41280000
H        0.00230000      -1.99220000       1.11950000
H       -0.86450000      -0.69490000       2.06000000
H       -1.20730000      -1.33330000      -0.97560000
H       -2.88400000       0.24700000       2.08580000
H       -3.49320000       1.74570000       1.21950000
H       -4.42400000      -1.13730000       0.50570000
H       -2.97950000       1.94500000      -1.40570000
H       -2.89300000       0.37090000      -2.25980000
