18
Properties=species:S:1:pos:R:3 gdb_48817=T pbc="F F F"
O       -0.48130000       0.25010000       0.36880000
C       -0.14710000       1.34500000      -0.00970000
C        1.26670000       1.82650000      -0.05550000
C        1.49930000       3.27130000       0.29530000
N        1.46570000       2.86420000      -1.09170000
C        2.73020000       2.85930000      -1.83770000
C        3.86440000       2.08100000      -1.22660000
C        3.68730000       1.15860000      -0.28460000
C        2.33850000       0.80070000       0.26990000
H       -0.88270000       2.09890000      -0.36660000
H        0.67640000       3.90230000       0.62340000
H        2.46090000       3.48550000       0.75840000
H        2.51090000       2.46190000      -2.83870000
H        3.02140000       3.90650000      -1.98950000
H        4.85800000       2.28930000      -1.61470000
H        4.53810000       0.60870000       0.10810000
H        2.39430000       0.66250000       1.35690000
H        2.01390000      -0.17280000      -0.12060000
