22
Properties=species:S:1:pos:R:3 gdb_67039=T pbc="F F F"
C       -0.20420000       1.50230000       0.01870000
C        0.07120000       0.03180000      -0.02060000
C        0.22930000      -0.84050000      -1.20080000
C        1.40710000      -1.79620000      -1.05560000
C        1.91340000      -1.53620000       0.38650000
C        0.71420000      -0.87310000       1.08530000
C        0.98620000      -0.31090000       2.46530000
C       -0.53570000      -1.77130000       0.89240000
N       -0.97600000      -1.01250000      -0.32480000
H        0.72440000       2.08220000      -0.04010000
H       -0.83820000       1.79050000      -0.82520000
H       -0.72200000       1.79220000       0.93980000
H       -0.04960000      -0.48210000      -2.18690000
H        1.10170000      -2.83740000      -1.20710000
H        2.17150000      -1.58040000      -1.80800000
H        2.23120000      -2.45160000       0.89830000
H        2.76780000      -0.84810000       0.37840000
H        1.79270000       0.43140000       2.44240000
H        0.09780000       0.17120000       2.88690000
H        1.28970000      -1.10530000       3.15680000
H       -0.37480000      -2.84600000       0.74200000
H       -1.29050000      -1.63490000       1.67190000
