19
Properties=species:S:1:pos:R:3 gdb_75084=T pbc="F F F"
C        0.18610000       1.53550000       0.09060000
C        0.00330000       0.04630000      -0.02210000
C       -0.05180000      -0.59040000      -1.19500000
C       -0.24300000      -2.07820000      -1.34110000
C       -0.79650000      -2.77490000      -0.09950000
O       -1.50840000      -3.75190000      -0.19080000
C       -0.45570000      -2.18040000       1.22050000
C        0.96470000      -1.75330000       1.55200000
C       -0.07390000      -0.70350000       1.26490000
H        1.08960000       1.78200000       0.66250000
H        0.26380000       2.00590000      -0.89260000
H       -0.65550000       1.99630000       0.62350000
H        0.05770000      -0.02440000      -2.11680000
H       -0.91490000      -2.32010000      -2.17040000
H        0.71380000      -2.56340000      -1.59410000
H       -1.04490000      -2.58140000       2.03680000
H        1.28370000      -1.90850000       2.57650000
H        1.73680000      -1.90910000       0.80690000
H       -0.44570000      -0.14350000       2.11760000
