15
Properties=species:S:1:pos:R:3 gdb_23111=T pbc="F F F"
O       -0.06790000       1.32600000       0.02780000
N        0.02920000      -0.07890000       0.04580000
C       -1.13480000      -0.61380000       0.01910000
C       -2.47930000      -0.07230000      -0.01680000
C       -3.33790000      -1.11480000       0.03430000
N       -2.71770000      -2.34810000       0.19350000
C       -1.28250000      -2.13600000       0.01850000
C       -0.77120000      -2.72870000      -1.29280000
O       -1.44220000      -3.41580000      -2.01760000
H        0.85550000       1.59290000       0.08240000
H       -2.72480000       0.97560000      -0.04360000
H       -4.41970000      -1.08170000       0.00120000
H       -3.08500000      -3.11260000      -0.36190000
H       -0.69540000      -2.58730000       0.82900000
H        0.28250000      -2.46760000      -1.51880000
