18
Properties=species:S:1:pos:R:3 gdb_39458=T pbc="F F F"
C        0.07150000       1.61790000      -0.00900000
C        1.21520000       0.70070000      -0.38720000
C        2.47830000       0.67100000       0.44720000
N        3.15280000      -0.62080000       0.30850000
C        2.79890000      -1.57280000       1.05200000
O        1.87050000      -1.55190000       2.06890000
C        0.47740000      -1.55240000       1.76790000
O       -0.06570000      -0.28770000       1.53870000
C       -0.05500000       0.14040000       0.20150000
H        0.18810000       2.21540000       0.88870000
H       -0.51160000       2.08590000      -0.79380000
H        1.37020000       0.51570000      -1.44650000
H        3.17030000       1.44340000       0.09760000
H        2.22440000       0.88010000       1.49310000
H        3.30520000      -2.53660000       0.97760000
H        0.28630000      -2.22240000       0.91780000
H        0.00270000      -1.93260000       2.67410000
H       -0.72400000      -0.42900000      -0.44240000
