13
Properties=species:S:1:pos:R:3 gdb_131708=T pbc="F F F"
O        0.02750000       1.42670000       0.00740000
C       -0.01020000       0.03180000       0.00240000
C       -1.43270000      -0.46470000       0.01230000
N       -2.42270000       0.35770000       0.02240000
C       -3.71260000      -0.16500000       0.03120000
O       -4.71590000       0.47740000       0.04090000
O       -3.86680000      -1.57240000       0.02820000
N       -2.80420000      -2.43570000       0.01740000
C       -1.63560000      -1.89990000       0.00990000
H        0.94800000       1.70560000      -0.00310000
H        0.47980000      -0.40920000      -0.88570000
H        0.49440000      -0.41580000       0.87900000
H       -0.80490000      -2.59860000       0.00140000
