17
Properties=species:S:1:pos:R:3 gdb_129774=T pbc="F F F"
N        0.02000000       1.41870000       0.26980000
C       -0.07410000       0.03100000       0.12970000
C       -1.17710000      -0.77760000      -0.06040000
C       -2.65210000      -0.84500000      -0.30070000
C       -2.94870000      -2.35880000      -0.04680000
C       -1.60400000      -3.10120000      -0.26760000
N       -0.65020000      -2.02770000      -0.03670000
N        0.66290000      -2.03630000       0.15840000
N        1.02190000      -0.77050000       0.25840000
H        0.99450000       1.69560000       0.29120000
H       -0.45990000       1.92780000      -0.46160000
H       -3.23170000      -0.20070000       0.36610000
H       -2.91000000      -0.55790000      -1.32830000
H       -3.26760000      -2.49450000       0.99000000
H       -3.74020000      -2.74660000      -0.69070000
H       -1.44030000      -3.92460000       0.43010000
H       -1.49860000      -3.48520000      -1.28840000
