15
Properties=species:S:1:pos:R:3 gdb_13033=T pbc="F F F"
O        0.04220000       0.00220000       0.02150000
C       -0.03320000       1.19430000       0.03120000
C       -1.17200000       2.20050000       0.26040000
C       -0.07790000       3.24640000       0.63560000
C        1.02530000       2.31840000       0.03490000
C        2.32110000       2.08740000       0.82180000
C        3.26820000       1.22390000       0.11880000
N        4.02580000       0.56330000      -0.45040000
H       -1.69110000       2.43960000      -0.67330000
H       -1.91420000       1.92700000       1.01330000
H       -0.16930000       4.23430000       0.18400000
H        0.02640000       3.35830000       1.71800000
H        1.25680000       2.60850000      -0.99600000
H        2.81270000       3.04810000       1.01510000
H        2.09530000       1.64220000       1.79750000
