21
Properties=species:S:1:pos:R:3 gdb_46987=T pbc="F F F"
O        0.04700000      -0.07780000      -0.02150000
C       -0.01940000       1.12800000       0.03530000
C       -1.34860000       1.87300000       0.15320000
C       -1.28220000       3.09100000       1.10400000
C        0.04930000       3.85660000       0.98570000
C        0.34150000       4.29990000      -0.46970000
C        1.09360000       3.10000000      -1.12210000
C        1.21150000       2.02620000      -0.00540000
C        1.20710000       2.88670000       1.28080000
H       -1.60180000       2.21680000      -0.85940000
H       -2.12370000       1.16070000       0.44480000
H       -2.12560000       3.76050000       0.90100000
H       -1.39820000       2.74700000       2.13900000
H        0.03460000       4.70770000       1.67300000
H       -0.57420000       4.56320000      -1.00780000
H        0.97410000       5.19230000      -0.47310000
H        0.58720000       2.71630000      -2.01270000
H        2.09760000       3.39740000      -1.43790000
H        2.09150000       1.38990000      -0.11290000
H        2.16070000       3.41780000       1.37930000
H        1.05730000       2.29970000       2.19290000
