14
Properties=species:S:1:pos:R:3 gdb_110181=T pbc="F F F"
O        0.02080000       1.40090000       0.00240000
C       -0.00420000       0.00700000      -0.18880000
C       -1.43160000      -0.52580000      -0.01470000
C       -1.66010000      -2.04830000       0.18090000
O       -2.16230000      -1.80510000       1.53700000
C       -1.93380000      -0.45090000       1.42300000
O       -2.04750000       0.38260000       2.26170000
C       -2.65070000      -2.68860000      -0.67370000
N       -3.41920000      -3.18880000      -1.37590000
H       -0.30030000       1.58790000       0.89360000
H        0.34650000      -0.18070000      -1.20810000
H        0.67500000      -0.52130000       0.49990000
H       -2.10700000      -0.05820000      -0.73320000
H       -0.74920000      -2.65090000       0.22490000
