19
Properties=species:S:1:pos:R:3 gdb_57679=T pbc="F F F"
C       -0.03420000       1.59680000       0.01450000
C        0.05610000       0.06970000       0.09960000
C        0.81130000      -0.39350000       1.35150000
C       -1.35900000      -0.54060000       0.05420000
C       -1.38260000      -2.05760000       0.09000000
O       -2.03160000      -2.69810000       0.87740000
O        0.68480000      -0.46450000      -1.10920000
C        1.95680000      -0.15510000      -1.41510000
O        2.49360000      -0.57350000      -2.39820000
H        0.95330000       2.06430000       0.05890000
H       -0.51990000       1.89970000      -0.91700000
H       -0.62120000       1.98350000       0.85270000
H        0.23960000      -0.13010000       2.24620000
H        0.95010000      -1.47810000       1.34560000
H        1.79310000       0.07960000       1.43420000
H       -1.95880000      -0.16620000       0.88770000
H       -1.83150000      -0.22550000      -0.88540000
H       -0.75940000      -2.55140000      -0.68410000
H        2.44830000       0.51060000      -0.68520000
