14
Properties=species:S:1:pos:R:3 gdb_24076=T pbc="F F F"
N       -0.01440000      -1.10210000      -0.24130000
C        0.01980000       0.03270000      -0.03100000
C        0.06220000       1.46550000       0.26700000
N        1.39770000       1.99640000       0.04520000
C        1.52570000       3.35950000       0.02200000
N        0.58020000       4.24250000      -0.07980000
C        1.27450000       5.45310000      -0.12920000
C        2.59910000       5.22320000      -0.04100000
O        2.78040000       3.85270000       0.05880000
H       -0.62700000       1.99990000      -0.39370000
H       -0.30150000       1.62570000       1.29310000
H        2.15850000       1.49930000       0.48480000
H        0.75710000       6.39480000      -0.21890000
H        3.49150000       5.82240000      -0.02660000
