16
Properties=species:S:1:pos:R:3 gdb_129712=T pbc="F F F"
N        0.10210000       1.37680000      -0.18080000
C       -0.01320000      -0.01860000      -0.06540000
C       -1.08520000      -0.88510000      -0.16180000
O       -2.38800000      -0.53560000      -0.35650000
C       -0.53670000      -2.18000000      -0.01710000
C       -1.32630000      -3.44930000      -0.03750000
O       -2.39550000      -3.36420000      -0.99650000
N        0.78520000      -2.13320000       0.15250000
N        1.07660000      -0.81910000       0.12310000
H        0.16370000       1.83490000       0.72440000
H       -0.71630000       1.74790000      -0.65110000
H       -2.84250000      -1.35020000      -0.62170000
H       -0.67200000      -4.30820000      -0.23050000
H       -1.83140000      -3.62500000       0.91880000
H       -1.98910000      -3.29360000      -1.86790000
H        2.03420000      -0.51670000       0.17870000
