17
Properties=species:S:1:pos:R:3 gdb_42960=T pbc="F F F"
O       -0.03640000       0.00020000       0.12730000
C       -0.03630000       1.19850000       0.00250000
C       -1.26750000       2.06330000      -0.18020000
O       -1.28040000       3.14150000       0.77860000
C       -0.81980000       3.42440000      -0.54280000
C        0.69800000       3.48890000      -0.63490000
C        1.41290000       4.20980000       0.54810000
C        1.68240000       2.83100000       1.21690000
C        1.18260000       2.11430000      -0.08540000
H       -2.22930000       1.62730000      -0.43140000
H       -1.45180000       4.09810000      -1.11650000
H        1.01250000       3.76510000      -1.64400000
H        2.32750000       4.71710000       0.23330000
H        0.80000000       4.91020000       1.11840000
H        2.72050000       2.62090000       1.48050000
H        1.05060000       2.63680000       2.08400000
H        1.97830000       1.61820000      -0.64210000
