20
Properties=species:S:1:pos:R:3 gdb_122699=T pbc="F F F"
O       -0.09020000       1.48820000       0.43440000
C       -0.01170000       0.09000000       0.19720000
C       -1.43200000      -0.45140000       0.11120000
C       -1.47060000      -1.95870000      -0.15610000
N       -2.84930000      -2.43870000      -0.13320000
C       -3.28790000      -3.09780000      -1.09900000
C       -4.61640000      -3.73550000      -1.44860000
C       -3.88560000      -4.15390000      -2.74050000
O       -2.66560000      -3.50350000      -2.27500000
H        0.80560000       1.83370000       0.48600000
H        0.52880000      -0.12410000      -0.73990000
H        0.53330000      -0.42110000       1.00850000
H       -1.95940000      -0.23390000       1.04590000
H       -1.96590000       0.07910000      -0.68530000
H       -0.96010000      -2.19060000      -1.10080000
H       -0.92530000      -2.48000000       0.64260000
H       -4.92170000      -4.54780000      -0.78700000
H       -5.44380000      -3.03420000      -1.56870000
H       -3.72690000      -5.22570000      -2.88320000
H       -4.24250000      -3.69860000      -3.66760000
