21
Properties=species:S:1:pos:R:3 gdb_108914=T pbc="F F F"
C       -0.32360000       1.48470000      -0.09590000
C        0.12350000       0.01540000       0.01510000
C        0.82190000      -0.47860000      -1.20570000
C        2.06380000      -0.91540000      -1.43190000
C        2.02950000      -1.24710000      -2.94040000
C        3.17400000      -1.96040000      -3.60250000
C        1.32370000       0.03000000      -3.50750000
C        0.21640000      -0.61090000      -2.62700000
O        0.71670000      -1.91980000      -3.04570000
H        0.53710000       2.14510000      -0.23950000
H       -1.00210000       1.63170000      -0.94270000
H       -0.84880000       1.80030000       0.81070000
H        0.78000000      -0.10520000       0.88420000
H       -0.76180000      -0.60800000       0.20480000
H        2.90350000      -1.03210000      -0.76090000
H        3.34990000      -2.92900000      -3.12390000
H        2.96430000      -2.13220000      -4.66150000
H        4.09050000      -1.36700000      -3.52080000
H        1.71610000       1.01230000      -3.23480000
H        1.11180000      -0.04870000      -4.57740000
H       -0.85240000      -0.46260000      -2.78190000
