21
Properties=species:S:1:pos:R:3 gdb_38373=T pbc="F F F"
C       -0.06650000       1.52860000       0.17170000
C        1.47390000       1.68800000       0.02980000
C        1.62040000       0.14280000       0.18640000
C        0.07760000      -0.01050000       0.00090000
O       -0.43940000      -0.53070000      -1.20940000
C        0.30790000      -0.47280000      -2.40800000
C        0.75470000       0.90260000      -2.92270000
O        1.99490000       1.33690000      -2.39170000
C        1.97890000       2.24680000      -1.30780000
H       -0.42930000       1.80300000       1.16600000
H       -0.69420000       2.02620000      -0.57240000
H        1.93400000       2.28040000       0.82630000
H        2.26450000      -0.35160000      -0.54080000
H        1.92890000      -0.15910000       1.18980000
H       -0.41400000      -0.60070000       0.77910000
H        1.20230000      -1.11180000      -2.35690000
H       -0.36190000      -0.91120000      -3.15670000
H        0.91620000       0.79740000      -4.00360000
H       -0.03600000       1.65220000      -2.77800000
H        1.39740000       3.14690000      -1.57060000
H        3.02580000       2.55150000      -1.20130000
