16
Properties=species:S:1:pos:R:3 gdb_55723=T pbc="F F F"
N       -0.10960000       1.37150000      -0.06250000
C       -0.08830000       0.05030000       0.34970000
O        0.66680000      -0.36730000       1.20200000
N       -1.07870000      -0.73150000      -0.23810000
C       -1.06700000      -2.15560000      -0.13000000
C       -1.21490000      -2.76770000       1.24930000
C       -2.36380000      -2.83950000       0.29720000
C       -0.24170000      -2.85020000      -1.09800000
N        0.40230000      -3.38460000      -1.89670000
H        0.69810000       1.89020000       0.24640000
H       -0.41600000       1.59160000      -0.99750000
H       -1.60170000      -0.34580000      -1.00950000
H       -0.64330000      -3.66610000       1.44520000
H       -1.24720000      -2.05720000       2.06370000
H       -3.20650000      -2.17690000       0.45580000
H       -2.59860000      -3.78770000      -0.17100000
