9
Properties=species:S:1:pos:R:3 gdb_21789=T pbc="F F F"
O       -0.13040000       0.02830000      -0.00100000
C       -0.00320000       1.22110000       0.00660000
C        1.32740000       1.89460000      -0.00230000
N        2.47750000       1.32220000      -0.01800000
O        3.39290000       2.38280000      -0.01980000
C        2.71790000       3.57370000      -0.00440000
O        3.18010000       4.65990000      -0.00140000
O        1.37130000       3.24860000       0.00690000
H       -0.85170000       1.93190000       0.02060000
