18
Properties=species:S:1:pos:R:3 gdb_7958=T pbc="F F F"
C       -0.36790000       1.55580000      -0.02880000
C        0.08050000       0.10000000      -0.04190000
N        1.15720000      -0.16200000      -0.99280000
C        1.91750000      -1.25400000      -0.58620000
O        2.74510000      -1.84830000      -1.23940000
N        1.53560000      -1.52490000       0.72350000
C        0.72070000      -0.44210000       1.27190000
C        1.54870000       0.57640000       2.06320000
H        0.46900000       2.23160000       0.16250000
H       -0.80640000       1.82680000      -0.99460000
H       -1.13430000       1.71710000       0.73630000
H       -0.79230000      -0.53470000      -0.26450000
H        0.99630000      -0.07430000      -1.98450000
H        2.21690000      -1.99480000       1.30020000
H       -0.06480000      -0.84840000       1.91820000
H        2.31090000       1.04080000       1.43080000
H        0.91650000       1.36330000       2.48550000
H        2.05530000       0.07810000       2.89630000
