19
Properties=species:S:1:pos:R:3 gdb_63317=T pbc="F F F"
C        0.07600000       1.50790000      -0.09210000
C       -0.03610000      -0.00690000       0.05220000
C       -1.49670000      -0.46320000       0.07230000
O        0.59710000      -0.61000000      -1.11300000
C        1.34530000      -1.70740000      -0.78420000
O        1.74350000      -2.48060000      -1.60680000
C        1.55490000      -1.72460000       0.69650000
C        2.21820000      -0.46640000       1.23220000
C        0.72790000      -0.58860000       1.24410000
H        1.12040000       1.82410000      -0.14080000
H       -0.42690000       1.84200000      -1.00380000
H       -0.39480000       2.00290000       0.76280000
H       -1.99560000      -0.17550000      -0.85670000
H       -1.56050000      -1.55030000       0.17570000
H       -2.03100000      -0.00430000       0.91050000
H        1.71150000      -2.67780000       1.18170000
H        2.73320000      -0.56780000       2.18070000
H        2.69990000       0.20180000       0.52660000
H        0.20240000      -0.67170000       2.18780000
