20
Properties=species:S:1:pos:R:3 gdb_53791=T pbc="F F F"
C       -0.00750000       1.53580000      -0.01430000
C       -0.00490000      -0.00030000       0.01150000
C        0.74840000      -0.50430000       1.26600000
C       -1.45930000      -0.52910000       0.02030000
C        0.70700000      -0.51340000      -1.23940000
O        1.17550000       0.22040000      -2.08270000
C        0.84850000      -2.05310000      -1.46120000
N        1.49890000      -2.32210000      -2.61380000
O        0.42270000      -2.89210000      -0.68760000
H        1.00940000       1.93680000      -0.03030000
H       -0.52620000       1.91960000      -0.89680000
H       -0.51500000       1.91680000       0.87740000
H        0.25420000      -0.11230000       2.16110000
H        0.75250000      -1.59330000       1.31490000
H        1.78340000      -0.14580000       1.27550000
H       -2.00860000      -0.18840000      -0.86410000
H       -1.48480000      -1.61840000       0.05250000
H       -1.97670000      -0.13740000       0.90220000
H        1.81380000      -1.55440000      -3.18440000
H        1.66270000      -3.27720000      -2.88240000
