15
Properties=species:S:1:pos:R:3 gdb_125825=T pbc="F F F"
C        0.17550000       1.45270000      -0.00710000
C        0.00280000      -0.03370000       0.01160000
N       -0.04490000      -0.65250000      -1.12260000
O       -0.20290000      -2.01670000      -1.12810000
N       -0.31490000      -2.77470000       0.01160000
C       -0.27090000      -2.18460000       1.16110000
C       -0.39500000      -3.03090000       2.38920000
C       -0.10540000      -0.73250000       1.29800000
O       -0.06210000      -0.16170000       2.37640000
H        1.07940000       1.73060000       0.54370000
H        0.23930000       1.81580000      -1.03330000
H       -0.66330000       1.93260000       0.50680000
H       -0.51080000      -4.08070000       2.11810000
H        0.48970000      -2.90430000       3.02090000
H       -1.25300000      -2.70250000       2.98390000
