23
Properties=species:S:1:pos:R:3 gdb_95403=T pbc="F F F"
C       -0.14150000       1.50170000      -0.06240000
C        0.03660000      -0.00740000       0.02170000
O        0.67960000      -0.42040000      -1.18100000
C        0.66010000      -1.82280000      -1.35550000
C        0.95090000      -2.58760000      -0.09590000
C        1.04170000      -2.01030000       1.10310000
C        1.32180000      -2.79040000       2.35860000
C        0.84420000      -0.50870000       1.23770000
C        2.19170000       0.22010000       1.40250000
H        0.81770000       2.00220000      -0.21720000
H       -0.79260000       1.75430000      -0.90360000
H       -0.59410000       1.88990000       0.85560000
H       -0.96040000      -0.47800000       0.07310000
H       -0.31670000      -2.14460000      -1.76510000
H        1.40870000      -2.04620000      -2.12610000
H        1.06590000      -3.66410000      -0.20520000
H        1.46710000      -3.85340000       2.14740000
H        2.21930000      -2.42380000       2.87190000
H        0.49470000      -2.69460000       3.07420000
H        0.23930000      -0.32420000       2.13780000
H        2.75340000       0.18340000       0.46490000
H        2.05210000       1.26850000       1.68190000
H        2.80130000      -0.24710000       2.18130000
