20
Properties=species:S:1:pos:R:3 gdb_120830=T pbc="F F F"
C       -0.01910000       1.50340000      -0.18160000
O        0.02940000       0.10260000      -0.02690000
C       -1.23560000      -0.50750000      -0.15350000
C       -1.15430000      -2.00780000       0.04060000
C        0.14440000      -2.73480000       0.00610000
N       -0.63120000      -2.64800000       1.24510000
C       -0.10810000      -1.83770000       2.33490000
C        0.63110000      -2.72330000       3.32480000
O        1.43680000      -2.31770000       4.12120000
H        1.00080000       1.87840000      -0.07190000
H       -0.39980000       1.78670000      -1.17490000
H       -0.65800000       1.97560000       0.58030000
H       -1.94420000      -0.07170000       0.57350000
H       -1.65460000      -0.31380000      -1.15610000
H       -2.03860000      -2.50880000      -0.35250000
H        0.21350000      -3.72260000      -0.44130000
H        1.03650000      -2.11980000      -0.07770000
H        0.54110000      -1.00740000       2.03070000
H       -0.95750000      -1.40140000       2.88200000
H        0.34730000      -3.79790000       3.26290000
