21
Properties=species:S:1:pos:R:3 gdb_50087=T pbc="F F F"
O       -0.06490000       0.12140000      -0.65760000
C       -0.00590000       1.18370000      -0.08710000
C        1.21590000       2.00860000       0.01920000
C        1.07090000       3.52850000       0.06710000
C        1.53300000       2.80840000       1.28660000
C        0.69670000       2.72950000       2.55280000
C        1.01480000       3.85360000       3.51960000
C        0.31450000       5.18540000       3.41520000
C        0.01720000       4.26250000       4.57220000
H       -0.91110000       1.62250000       0.39330000
H        2.06160000       1.59820000      -0.52190000
H        1.77260000       4.11070000      -0.51880000
H        0.05670000       3.91720000       0.06550000
H        2.60170000       2.86210000       1.48180000
H       -0.37150000       2.76090000       2.30900000
H        0.87150000       1.76330000       3.04490000
H        2.05920000       3.89430000       3.82120000
H        0.88330000       6.08840000       3.60710000
H       -0.44860000       5.29910000       2.65210000
H       -0.94330000       3.75730000       4.58260000
H        0.38470000       4.53190000       5.55610000
