10
Properties=species:S:1:pos:R:3 gdb_132183=T pbc="F F F"
F        0.08440000       0.08950000       0.00210000
C       -0.05240000       1.38700000       0.01130000
N       -1.18970000       1.93610000       0.02960000
C       -1.27010000       3.34670000       0.03840000
O       -2.31620000       3.94270000       0.05600000
C        0.04680000       4.01810000       0.02430000
F        0.06630000       5.33830000       0.03130000
C        1.18490000       3.31690000       0.00500000
O        1.16330000       1.94580000      -0.00220000
H        2.18610000       3.72130000      -0.00640000
