20
Properties=species:S:1:pos:R:3 gdb_110615=T pbc="F F F"
C        0.35550000       1.54060000       0.08920000
C       -0.24140000       0.15310000      -0.13260000
N        0.51260000      -0.55560000      -1.16580000
C        1.72450000      -1.30240000      -0.88480000
C        1.64810000      -2.11440000       0.40170000
O        1.65320000      -3.50910000       0.04840000
C        0.41130000      -2.78570000      -0.05380000
C       -0.77280000      -3.32600000       0.68230000
C        0.45830000      -1.99070000      -1.36280000
H        1.38240000       1.46870000       0.46290000
H        0.37670000       2.10460000      -0.84740000
H       -0.23190000       2.10070000       0.82300000
H       -0.28380000      -0.38940000       0.82260000
H       -1.27130000       0.24310000      -0.49770000
H        2.62200000      -1.08480000      -1.45190000
H        1.96940000      -1.86380000       1.40590000
H       -0.47960000      -3.66920000       1.67780000
H       -1.55240000      -2.56490000       0.78350000
H       -1.20450000      -4.17740000       0.14440000
H        0.23860000      -2.37510000      -2.35290000
