15
Properties=species:S:1:pos:R:3 gdb_18451=T pbc="F F F"
O       -0.26100000       1.42210000       0.05280000
C        0.00580000       0.04100000       0.00410000
C        0.34270000      -0.61100000       1.40130000
C       -0.98750000      -1.37240000       1.33140000
C       -1.31750000      -0.73660000       0.00450000
N       -0.96510000      -2.14710000       0.10240000
C       -1.83760000      -3.18800000      -0.16220000
O       -2.16000000      -4.04140000       0.62850000
H        0.57220000       1.88680000       0.18080000
H        0.68710000      -0.22080000      -0.81560000
H        1.24330000      -1.22410000       1.47810000
H        0.33660000       0.16150000       2.17330000
H       -1.64550000      -1.67590000       2.13530000
H       -2.26930000      -0.41620000      -0.40230000
H       -2.14840000      -3.19560000      -1.22470000
