19
Properties=species:S:1:pos:R:3 gdb_51091=T pbc="F F F"
O       -0.27580000       0.08680000       0.12400000
C       -0.02030000       1.26250000       0.07190000
C        1.36760000       1.82780000      -0.16990000
C        1.38210000       2.85860000      -1.27620000
C        2.55090000       3.84200000      -1.52910000
C        1.34980000       4.65280000      -2.06010000
C        0.91560000       3.88790000      -3.32690000
C        0.94650000       2.45510000      -2.70850000
O        0.52370000       4.02630000      -1.02720000
H       -0.80880000       2.03300000       0.21100000
H        1.69480000       2.30880000       0.76190000
H        2.05110000       1.00370000      -0.39480000
H        2.94350000       4.25170000      -0.59770000
H        3.35260000       3.55580000      -2.21500000
H        1.31320000       5.74160000      -2.05690000
H       -0.08370000       4.18660000      -3.64920000
H        1.60750000       4.01980000      -4.16290000
H        1.66160000       1.78320000      -3.19060000
H       -0.03340000       1.97230000      -2.70760000
