21
Properties=species:S:1:pos:R:3 gdb_89689=T pbc="F F F"
C       -0.15300000       1.51950000       0.01500000
C        0.06030000       0.00690000       0.04170000
C        1.00030000      -0.54900000      -1.08210000
C        2.03980000      -1.30150000      -0.20910000
C        1.11090000      -2.00250000       0.84050000
C        0.82480000      -0.53800000       1.27160000
C        2.31120000      -0.25070000       0.91870000
C        3.10550000      -1.99800000      -0.88330000
C        3.99560000      -2.57960000      -1.44670000
H        0.79270000       2.06680000       0.08860000
H       -0.63920000       1.82930000      -0.91630000
H       -0.79050000       1.84260000       0.84550000
H       -0.92030000      -0.47970000      -0.01650000
H        0.49120000      -1.22200000      -1.77670000
H        1.47150000       0.24690000      -1.66650000
H        0.28100000      -2.60310000       0.45650000
H        1.68210000      -2.56790000       1.57920000
H        0.41610000      -0.30190000       2.25440000
H        3.00540000      -0.63040000       1.67080000
H        2.60330000       0.75650000       0.61090000
H        4.78190000      -3.09260000      -1.94220000
