21
Properties=species:S:1:pos:R:3 gdb_79339=T pbc="F F F"
C       -0.15290000       1.55460000      -0.01280000
C        0.04330000       0.04030000      -0.02750000
C        0.97640000      -0.51530000      -1.10150000
C        2.38480000      -0.59020000      -0.48950000
C        2.27840000      -0.08700000       0.94400000
C        0.83160000      -0.58190000       1.15570000
O        0.91900000      -1.96400000       0.77010000
C        1.49280000      -1.81330000      -0.52530000
C        1.74380000      -3.09330000      -1.25530000
H        0.79720000       2.09630000      -0.03430000
H       -0.72870000       1.87510000      -0.88720000
H       -0.70560000       1.87310000       0.87840000
H       -0.93390000      -0.45430000      -0.08180000
H        0.81170000      -0.37290000      -2.16190000
H        3.28230000      -0.50940000      -1.08830000
H        2.97470000      -0.58990000       1.62110000
H        2.39070000       0.99410000       1.05240000
H        0.39910000      -0.50080000       2.15150000
H        0.81070000      -3.64540000      -1.40840000
H        2.18730000      -2.89250000      -2.23450000
H        2.43000000      -3.73510000      -0.69310000
