21
Properties=species:S:1:pos:R:3 gdb_39190=T pbc="F F F"
C        0.08400000       1.42100000      -0.55900000
C        1.46540000       1.56960000       0.14960000
C        1.49380000       2.29980000       1.51450000
C        2.00750000       1.25190000       2.52350000
C        1.43780000      -0.09830000       2.01770000
C       -0.03550000      -0.27870000       2.31950000
C       -0.80820000      -0.23930000       1.23290000
C       -0.01980000      -0.05050000      -0.03480000
C        1.45450000       0.04040000       0.47250000
H       -0.70380000       2.10780000      -0.23490000
H        0.16000000       1.47160000      -1.64870000
H        2.27030000       1.91050000      -0.50550000
H        2.12200000       3.19510000       1.49770000
H        0.48590000       2.62430000       1.79220000
H        3.10320000       1.20970000       2.49670000
H        1.71970000       1.47620000       3.55600000
H        2.03120000      -0.93730000       2.39970000
H       -0.40100000      -0.39030000       3.33610000
H       -1.89160000      -0.31160000       1.23860000
H       -0.25930000      -0.79350000      -0.80150000
H        2.19590000      -0.57430000      -0.03850000
