18
Properties=species:S:1:pos:R:3 gdb_14296=T pbc="F F F"
C        0.08980000       1.46360000       0.02060000
C        0.03560000      -0.03130000      -0.01600000
C       -0.01640000      -0.82110000      -1.09930000
C        0.00010000      -2.27090000      -0.75710000
C        1.24510000      -2.74590000      -0.02820000
O        2.44260000      -2.03340000      -0.03700000
C        0.05080000      -2.30990000       0.77870000
C        0.03580000      -0.86010000       1.25950000
H        1.00080000       1.82170000       0.51660000
H        0.05990000       1.89430000      -0.98390000
H       -0.75290000       1.87250000       0.59300000
H       -0.03620000      -0.46090000      -2.12270000
H       -0.56950000      -2.97700000      -1.35190000
H        1.44250000      -3.81310000      -0.06100000
H        2.25300000      -1.16200000      -0.40900000
H       -0.49640000      -3.05720000       1.34200000
H        0.91260000      -0.63190000       1.88140000
H       -0.84730000      -0.63840000       1.87290000
