21
Properties=species:S:1:pos:R:3 gdb_59395=T pbc="F F F"
C        1.16140000       0.79390000      -0.95210000
C        1.82450000      -0.51050000      -0.48370000
C        3.35510000      -0.44020000      -0.58320000
C        1.40860000      -0.80550000       0.94270000
O        0.06740000      -1.23210000       1.18190000
C        1.13270000      -2.15290000       1.50380000
C        1.18320000      -3.42530000       0.68210000
C        1.35600000      -2.34930000       2.92080000
C        1.55460000      -2.54260000       4.09060000
H        1.49550000       1.64370000      -0.34540000
H        1.41670000       1.00730000      -1.99480000
H        0.07280000       0.72750000      -0.87060000
H        1.46590000      -1.32080000      -1.12690000
H        3.75550000       0.34690000       0.06640000
H        3.82210000      -1.38540000      -0.28860000
H        3.66670000      -0.21340000      -1.60740000
H        1.75830000      -0.06050000       1.66300000
H        0.43530000      -4.13260000       1.05220000
H        0.97470000      -3.22520000      -0.36950000
H        2.16610000      -3.89810000       0.77020000
H        1.72480000      -2.70240000       5.12660000
