17
Properties=species:S:1:pos:R:3 gdb_74342=T pbc="F F F"
C        0.01560000       1.54550000      -0.07230000
C       -0.00680000       0.05370000      -0.00650000
C       -1.05170000      -0.78160000       0.01950000
C       -0.66400000      -2.25370000       0.05710000
C        0.88390000      -2.21420000       0.16640000
C        1.25580000      -0.73410000       0.02410000
O        2.37580000      -0.28440000      -0.04930000
C       -1.33090000      -2.98110000       1.13350000
C       -1.88340000      -3.56880000       2.02450000
H        0.59420000       1.87950000      -0.94010000
H       -0.99050000       1.96680000      -0.13330000
H        0.51780000       1.96050000       0.80840000
H       -2.09590000      -0.48830000       0.00900000
H       -0.95750000      -2.71840000      -0.89510000
H        1.22450000      -2.57630000       1.14010000
H        1.38600000      -2.81270000      -0.59720000
H       -2.36900000      -4.09350000       2.80980000
