19
Properties=species:S:1:pos:R:3 gdb_103906=T pbc="F F F"
C        0.19550000       1.28390000      -0.11120000
C       -0.00810000      -0.19740000       0.22710000
C       -1.45090000      -0.63900000       0.08450000
O       -2.35890000      -0.01940000       0.95760000
C       -1.98210000      -1.07040000      -1.27290000
C       -1.79420000      -2.07770000      -0.17520000
O       -0.76610000      -3.02780000      -0.37380000
C       -0.35050000      -3.69660000       0.72560000
O        0.51060000      -4.52160000       0.68430000
H        1.24440000       1.56990000       0.00540000
H       -0.09900000       1.50010000      -1.14390000
H       -0.39230000       1.92700000       0.55280000
H        0.62180000      -0.81930000      -0.41590000
H        0.30930000      -0.38420000       1.26080000
H       -2.51880000       0.87480000       0.63670000
H       -3.00050000      -0.81000000      -1.53730000
H       -1.27970000      -1.11300000      -2.09820000
H       -2.67960000      -2.46930000       0.31670000
H       -0.89620000      -3.39790000       1.64070000
