20
Properties=species:S:1:pos:R:3 gdb_70319=T pbc="F F F"
C        0.36590000       1.31840000      -0.37870000
C       -0.17890000      -0.01080000       0.09080000
C       -1.69060000      -0.16110000      -0.01270000
N       -2.32470000      -1.32350000       0.60340000
C       -1.88310000      -2.67010000       0.23040000
C       -1.58790000      -2.11970000       1.58580000
C       -0.17400000      -1.75890000       2.01380000
C        0.54870000      -0.81640000       1.08050000
O        0.59450000      -1.15940000      -0.31400000
H        1.45730000       1.32420000      -0.32360000
H        0.07570000       1.50960000      -1.41790000
H       -0.02130000       2.13960000       0.23380000
H       -2.13650000       0.73330000       0.44390000
H       -1.97810000      -0.14330000      -1.07180000
H       -2.68710000      -3.39210000       0.10400000
H       -1.04900000      -2.76880000      -0.45500000
H       -2.21030000      -2.46060000       2.41210000
H       -0.21040000      -1.27260000       2.99790000
H        0.41980000      -2.67240000       2.14870000
H        1.49330000      -0.42760000       1.46480000
