9
Properties=species:S:1:pos:R:3 gdb_107=T pbc="F F F"
C       -0.04790000      -1.22490000      -0.00410000
C       -0.00750000      -0.02540000       0.00200000
C        0.02540000       1.43800000       0.00950000
C        1.37950000       1.99380000      -0.00040000
C        2.48460000       2.46210000      -0.00850000
H       -0.07820000      -2.28630000      -0.00940000
H       -0.53040000       1.81870000      -0.85830000
H       -0.51370000       1.80930000       0.89190000
H        3.46440000       2.87130000      -0.01560000
