21
Properties=species:S:1:pos:R:3 gdb_93506=T pbc="F F F"
C       -0.19890000       1.61040000      -0.05510000
C       -0.01000000       0.08820000      -0.01250000
C        0.75690000      -0.42970000      -1.23860000
N        2.15040000      -0.02020000      -1.16260000
C        2.88040000       0.03250000       0.00560000
O        4.09410000       0.15050000       0.01650000
N        2.12640000       0.01450000       1.16190000
C        0.73490000      -0.41920000       1.24110000
C        0.12860000       0.03890000       2.56690000
H        0.75830000       2.13300000       0.00930000
H       -0.68270000       1.90530000      -0.99160000
H       -0.83260000       1.95760000       0.76520000
H       -0.99590000      -0.39170000      -0.01900000
H        0.65890000      -1.52570000      -1.29570000
H        0.32150000      -0.02030000      -2.15670000
H        2.73030000      -0.10600000      -1.98160000
H        2.69530000      -0.05760000       1.99130000
H        0.67850000      -1.52130000       1.21660000
H        0.18690000       1.12470000       2.67780000
H       -0.91980000      -0.26690000       2.63650000
H        0.66250000      -0.41500000       3.40900000
