19
Properties=species:S:1:pos:R:3 gdb_49225=T pbc="F F F"
O       -0.09170000      -0.00620000      -0.02530000
C       -0.00350000       1.20250000      -0.04170000
C        1.25930000       1.93760000       0.03810000
C        1.35760000       3.27490000      -0.00440000
C        2.78270000       3.74620000       0.06760000
C        3.55950000       2.45810000       0.39270000
C        5.03910000       2.35140000       0.14830000
C        4.51350000       2.43380000       1.56130000
C        2.61170000       1.27260000       0.14670000
H       -0.90970000       1.84500000      -0.11980000
H        0.51360000       3.95040000      -0.10500000
H        3.08590000       4.18730000      -0.89410000
H        2.92560000       4.53220000       0.81980000
H        5.43120000       1.40010000      -0.19710000
H        5.55560000       3.21640000      -0.25620000
H        4.67270000       3.35580000       2.11210000
H        4.54770000       1.53780000       2.17280000
H        2.63920000       0.52760000       0.94870000
H        2.84660000       0.73360000      -0.78090000
