19
Properties=species:S:1:pos:R:3 gdb_74975=T pbc="F F F"
C       -0.03390000       1.49660000       0.04280000
C        0.00040000       0.00360000      -0.03210000
C       -0.01530000      -0.76090000      -1.12800000
C        0.01240000      -2.23380000      -0.80570000
C        1.26650000      -2.51300000       0.04020000
O        1.23250000      -1.67670000       1.19960000
C        0.05170000      -0.85420000       1.21730000
C       -1.16320000      -1.79750000       1.20230000
O       -1.12530000      -2.58230000       0.01020000
H        0.85590000       1.88410000       0.55480000
H       -0.07930000       1.94640000      -0.95290000
H       -0.90180000       1.84980000       0.61440000
H       -0.03710000      -0.38860000      -2.14650000
H       -0.03310000      -2.88040000      -1.68270000
H        1.26970000      -3.56290000       0.35950000
H        2.18220000      -2.31060000      -0.53090000
H        0.09780000      -0.27520000       2.14180000
H       -1.11720000      -2.46760000       2.07030000
H       -2.10330000      -1.23020000       1.24300000
