19
Properties=species:S:1:pos:R:3 gdb_3071=T pbc="F F F"
C        0.24640000       1.44550000       0.04720000
C       -0.02310000      -0.04470000      -0.07800000
O        0.70990000      -0.54540000      -1.17520000
C        0.52360000      -1.93010000      -1.38390000
C        1.28990000      -2.35510000      -2.60570000
C        2.75630000      -2.68160000      -2.49970000
C        1.75420000      -3.78430000      -2.73250000
H        1.31250000       1.62990000       0.20710000
H       -0.05730000       1.96740000      -0.86480000
H       -0.31000000       1.86560000       0.89050000
H        0.26950000      -0.56900000       0.84860000
H       -1.10180000      -0.23190000      -0.22120000
H        0.87020000      -2.50250000      -0.50460000
H       -0.55120000      -2.15300000      -1.50590000
H        0.96810000      -1.86460000      -3.51980000
H        3.40680000      -2.39380000      -3.31780000
H        3.21770000      -2.61210000      -1.52020000
H        1.54480000      -4.46200000      -1.91100000
H        1.71320000      -4.25120000      -3.71010000
