19
Properties=species:S:1:pos:R:3 gdb_110996=T pbc="F F F"
O        0.32800000       0.54050000       0.98230000
C       -0.12160000       0.36150000      -0.35140000
C       -1.48860000      -0.31540000      -0.36890000
C       -2.03360000      -0.98270000      -1.69440000
C       -1.09210000      -2.19630000      -1.37670000
C       -1.53000000      -1.81720000       0.08190000
O       -0.81120000      -2.17060000       1.22960000
C       -3.04270000      -2.08930000      -0.00730000
C       -3.37080000      -1.53570000      -1.17740000
H        0.30120000      -0.33010000       1.39910000
H       -0.20220000       1.36390000      -0.78750000
H        0.62020000      -0.18650000      -0.95090000
H       -2.20790000       0.32190000       0.15190000
H       -2.00890000      -0.46940000      -2.65360000
H       -1.40300000      -3.17350000      -1.75260000
H       -0.03580000      -2.01500000      -1.58480000
H       -0.77490000      -3.13030000       1.30020000
H       -3.64380000      -2.58570000       0.74160000
H       -4.33020000      -1.45850000      -1.66920000
