13
Properties=species:S:1:pos:R:3 gdb_25792=T pbc="F F F"
N       -0.14800000       1.27810000       0.06620000
C        0.02780000      -0.07150000       0.13690000
O        1.10600000      -0.61930000       0.22330000
C       -1.24650000      -0.84750000       0.09850000
N       -1.39000000      -2.13910000       0.14830000
C       -2.74590000      -2.33910000       0.07940000
O       -3.28490000      -3.56730000       0.10350000
C       -3.38820000      -1.14150000      -0.01120000
O       -2.41640000      -0.17360000       0.00100000
H        0.67000000       1.86290000       0.08730000
H       -1.05950000       1.69470000      -0.00440000
H       -2.55290000      -4.19280000       0.17500000
H       -4.41110000      -0.82220000      -0.08480000
