21
Properties=species:S:1:pos:R:3 gdb_114831=T pbc="F F F"
C       -0.08680000       1.61850000       0.21130000
C        0.02970000       0.09620000       0.08230000
C       -1.33530000      -0.57870000       0.01690000
O       -2.04320000      -0.16070000      -1.18360000
C       -2.46610000      -1.35870000      -1.81150000
C       -2.82870000      -2.27280000      -0.63890000
C       -1.39520000      -2.12230000      -0.08180000
C       -0.60840000      -2.57820000      -1.32250000
O       -1.35970000      -2.01050000      -2.41800000
H        0.90050000       2.08900000       0.23860000
H       -0.64030000       2.03060000      -0.63660000
H       -0.61720000       1.89970000       1.12810000
H        0.60110000      -0.14860000      -0.81860000
H        0.58090000      -0.31330000       0.93940000
H       -1.92530000      -0.25450000       0.88890000
H       -3.20000000      -1.12150000      -2.57970000
H       -3.60370000      -1.85750000       0.00780000
H       -3.08500000      -3.28910000      -0.94470000
H       -1.15020000      -2.64710000       0.84150000
H        0.42230000      -2.21410000      -1.35680000
H       -0.59110000      -3.67240000      -1.41290000
