13
Properties=species:S:1:pos:R:3 gdb_130363=T pbc="F F F"
N        0.04660000       1.33490000       0.07950000
C       -0.02190000       0.00300000      -0.04470000
N       -1.13540000      -0.63280000       0.12570000
C       -1.10260000      -2.00580000       0.05900000
C       -2.30120000      -2.72710000      -0.07940000
N       -2.29940000      -4.04140000      -0.12290000
N       -1.12390000      -4.68450000      -0.04590000
N       -0.00160000      -4.02310000       0.08660000
N        0.03820000      -2.69750000       0.15620000
H        0.90290000       1.83200000      -0.08700000
H       -0.78090000       1.85340000       0.32930000
H        0.91700000      -0.49350000      -0.30050000
H       -3.25780000      -2.21710000      -0.14960000
