19
Properties=species:S:1:pos:R:3 gdb_64770=T pbc="F F F"
C       -0.00530000       1.68060000      -0.08740000
C        0.04780000       0.15870000      -0.05260000
C       -1.36640000      -0.47970000      -0.01940000
C       -2.14560000      -0.13010000       1.16000000
C       -2.79670000       0.16680000       2.12550000
C        0.87630000      -0.46500000      -1.19420000
O        1.43040000      -1.62400000      -0.59360000
C        1.74560000      -1.21830000       0.71540000
O        0.77470000      -0.26700000       1.11110000
H        1.00540000       2.09550000      -0.05250000
H       -0.49550000       2.03010000      -1.00270000
H       -0.56830000       2.05980000       0.76850000
H       -1.91160000      -0.17510000      -0.92260000
H       -1.24140000      -1.56740000      -0.07480000
H       -3.36710000       0.42080000       2.98420000
H        0.28390000      -0.77310000      -2.05840000
H        1.66560000       0.22830000      -1.52400000
H        1.71210000      -2.09490000       1.37110000
H        2.74860000      -0.75690000       0.75470000
