13
Properties=species:S:1:pos:R:3 gdb_49173=T pbc="F F F"
O       -0.93680000       1.19910000      -0.14610000
C        0.19750000       0.84090000       0.07380000
C        1.37000000       1.73620000      -0.02900000
C        1.35270000       3.04430000      -0.34650000
C        2.72960000       3.63150000      -0.26650000
O        3.27730000       3.52970000       1.06310000
C        3.64590000       2.53960000       0.09060000
C        2.78220000       1.28430000       0.20500000
O        3.16230000       0.15790000       0.40210000
H        0.43750000      -0.20020000       0.36460000
H        0.46080000       3.60900000      -0.59060000
H        3.02310000       4.50620000      -0.83600000
H        4.69430000       2.48260000      -0.18270000
