17
Properties=species:S:1:pos:R:3 gdb_82867=T pbc="F F F"
O       -0.03890000       1.42380000       0.14560000
C       -0.01280000       0.02500000      -0.01550000
C       -1.44110000      -0.53870000      -0.18870000
O       -2.17590000       0.22750000      -1.16330000
C       -1.54310000      -0.52560000      -2.22490000
C       -0.15410000       0.06210000      -2.53210000
C        0.63250000      -0.50450000      -1.33050000
O        0.22630000      -1.88240000      -1.29890000
C       -1.16780000      -1.66900000      -1.22510000
H        0.84800000       1.71300000       0.38120000
H        0.47040000      -0.48080000       0.83300000
H       -2.00090000      -0.69490000       0.73430000
H       -2.20430000      -0.68600000      -3.07730000
H        0.25600000      -0.32380000      -3.46970000
H       -0.18440000       1.15280000      -2.55570000
H        1.71990000      -0.44370000      -1.38540000
H       -1.72400000      -2.60190000      -1.20170000
