18
Properties=species:S:1:pos:R:3 gdb_65587=T pbc="F F F"
N       -0.09030000       1.43690000       0.10970000
C       -0.01150000      -0.02100000       0.01450000
C        0.65120000      -0.64610000       1.28200000
C       -0.01760000      -2.00550000       1.44030000
N       -1.33160000      -1.92250000       2.11000000
C       -1.27020000      -2.02070000       0.63740000
C       -1.42910000      -0.67140000      -0.05140000
C        0.75870000      -0.45270000      -1.17900000
N        1.36510000      -0.74690000      -2.11950000
H        0.84510000       1.83380000       0.14870000
H       -0.52300000       1.81710000      -0.72830000
H        1.73580000      -0.72110000       1.17460000
H        0.42380000      -0.00100000       2.13490000
H        0.58800000      -2.89470000       1.57630000
H       -1.56940000      -2.83300000       2.49810000
H       -1.63120000      -2.92170000       0.15380000
H       -2.12010000      -0.03190000       0.50430000
H       -1.78290000      -0.76390000      -1.08080000
