16
Properties=species:S:1:pos:R:3 gdb_7248=T pbc="F F F"
C       -1.27220000       1.16850000       0.99060000
C       -0.49020000       0.35640000      -0.05570000
O        0.88950000       0.43480000       0.18560000
C       -0.92800000      -1.10530000      -0.06360000
O       -0.12590000      -1.97730000       0.18550000
C       -2.39460000      -1.46480000      -0.33940000
C       -3.08280000      -0.62130000      -1.30570000
C       -3.65150000       0.06770000      -2.10930000
H       -0.87660000       2.18670000       1.00580000
H       -2.33770000       1.21480000       0.74980000
H       -1.14110000       0.73810000       1.98820000
H       -0.72210000       0.76340000      -1.05270000
H        1.18210000      -0.47940000       0.32690000
H       -2.40930000      -2.51520000      -0.64640000
H       -2.91300000      -1.41880000       0.62950000
H       -4.15320000       0.67540000      -2.82140000
