22
Properties=species:S:1:pos:R:3 gdb_6500=T pbc="F F F"
C       -0.82470000       0.79670000       1.02560000
C        0.66210000       0.49660000       0.78700000
C        1.22800000      -0.35690000       1.93150000
C        0.85780000      -0.15140000      -0.60070000
C        2.28060000      -0.18040000      -1.13140000
O        3.19190000      -0.97830000      -0.41070000
C        2.52350000      -0.07590000      -2.61880000
C        2.89980000       1.06400000      -1.68980000
H       -1.23150000       1.46110000       0.25550000
H       -1.41780000      -0.12620000       1.01510000
H       -0.97930000       1.27560000       1.99820000
H        1.20220000       1.45360000       0.77810000
H        0.70610000      -1.32120000       1.98710000
H        2.29110000      -0.55710000       1.79140000
H        1.08870000       0.14550000       2.89490000
H        0.45980000      -1.17820000      -0.58230000
H        0.24440000       0.39120000      -1.33080000
H        2.91120000      -1.89600000      -0.50180000
H        3.33660000      -0.66920000      -3.02200000
H        1.67580000       0.05270000      -3.28350000
H        2.30560000       1.97100000      -1.71570000
H        3.95400000       1.21480000      -1.48940000
