18
Properties=species:S:1:pos:R:3 gdb_108755=T pbc="F F F"
C       -0.03950000       1.53980000      -0.01640000
C        0.04470000       0.01560000       0.04970000
O        0.76840000      -0.47610000      -1.08840000
C        1.83920000      -1.23720000      -0.67240000
N        2.66360000      -1.80900000      -1.44530000
C        1.83450000      -1.25600000       0.79280000
C        0.80050000      -0.53810000       1.23590000
C        0.38130000      -0.28840000       2.64450000
O        1.23570000      -0.99700000       3.51780000
H        0.95930000       1.98110000       0.04490000
H       -0.50100000       1.84690000      -0.95830000
H       -0.64860000       1.92910000       0.80580000
H       -0.97140000      -0.40520000       0.00530000
H        2.42170000      -1.62700000      -2.42060000
H        2.56830000      -1.78560000       1.37920000
H        0.40730000       0.79740000       2.84420000
H       -0.67310000      -0.59620000       2.76530000
H        0.97500000      -0.80040000       4.42200000
