17
Properties=species:S:1:pos:R:3 gdb_44808=T pbc="F F F"
O       -0.17400000       0.34900000      -0.81340000
C       -0.01560000       1.38410000      -0.23670000
C       -0.81560000       2.69860000      -0.12330000
N        0.41070000       3.38420000       0.42730000
C        0.69120000       2.69480000       1.68370000
C        1.16740000       2.05020000       0.41960000
C        2.60420000       1.93080000       0.04770000
C        3.06850000       2.44280000      -1.26510000
N        3.42000000       3.15410000      -0.02300000
H       -1.07870000       3.09260000      -1.10850000
H       -1.68750000       2.73710000       0.53540000
H        1.45860000       3.17090000       2.28700000
H       -0.13360000       2.26220000       2.24590000
H        3.11650000       1.07870000       0.48880000
H        3.89810000       1.95810000      -1.77060000
H        2.32840000       2.89170000      -1.92210000
H        2.79870000       3.95730000       0.07250000
