10
Properties=species:S:1:pos:R:3 gdb_133441=T pbc="F F F"
F        0.03510000       0.11610000      -0.31840000
C       -0.03210000       1.39290000      -0.02700000
N       -1.20680000       1.86700000       0.16030000
O       -1.24220000       3.23660000       0.47100000
C       -0.10500000       3.99930000       0.56480000
N       -0.10910000       5.23140000       0.84240000
C        1.13810000       3.25310000       0.31180000
F        2.23980000       3.94080000       0.39110000
N        1.19150000       2.01470000       0.02930000
H       -1.05950000       5.57800000       0.98550000
