15
Properties=species:S:1:pos:R:3 gdb_74346=T pbc="F F F"
C       -0.04870000       1.57370000       0.00780000
C       -0.00900000       0.07630000      -0.03600000
C       -0.08800000      -0.77790000      -1.17190000
C        0.00180000      -2.06850000      -0.72990000
O        0.12840000      -2.06730000       0.64890000
C        0.11920000      -0.77820000       1.03560000
N        0.30110000      -0.55040000       2.38100000
H        0.12140000      -1.35870000       2.96020000
H       -0.15360000       0.28000000       2.73090000
C       -0.00670000      -3.30870000      -1.38630000
N       -0.01880000      -4.32560000      -1.94610000
H        0.58890000       1.96560000       0.80770000
H        0.31200000       2.00050000      -0.93220000
H       -1.06150000       1.96330000       0.17170000
H       -0.19110000      -0.47530000      -2.20280000
