18
Properties=species:S:1:pos:R:3 gdb_46350=T pbc="F F F"
N        0.01280000       1.17040000      -0.35210000
C        0.02030000      -0.04300000      -0.03610000
O        1.04860000      -0.86350000       0.37480000
C        0.13680000      -2.00120000       0.52110000
C       -1.04630000      -1.11850000       0.06820000
C       -2.14710000      -0.84940000       1.07680000
C       -3.29910000       0.08340000       0.64530000
C       -4.19520000      -1.14590000       0.89890000
O       -3.04810000      -1.97280000       1.20520000
H        0.94610000       1.58030000      -0.28400000
H        0.42000000      -2.81670000      -0.14730000
H        0.10700000      -2.34760000       1.55700000
H       -1.48020000      -1.40430000      -0.89320000
H       -1.70280000      -0.59150000       2.04890000
H       -3.47150000       0.94810000       1.28570000
H       -3.24250000       0.41450000      -0.39240000
H       -4.87390000      -1.06260000       1.75650000
H       -4.75630000      -1.52980000       0.03930000
