16
Properties=species:S:1:pos:R:3 gdb_31362=T pbc="F F F"
C        0.01070000       1.47760000      -0.05090000
N        0.04270000       0.02840000       0.05280000
C        0.64080000      -0.62470000       1.07360000
N        0.68070000      -1.97850000       1.02070000
H        0.28320000      -2.50450000       0.25510000
C        1.26750000      -2.75650000       2.04660000
N        1.24880000      -4.02140000       1.88890000
N        1.79510000      -2.04180000       3.10980000
C        1.69810000      -0.74480000       3.05700000
N        1.15120000       0.04240000       2.08970000
H        0.84910000       1.86590000      -0.64160000
H       -0.92720000       1.78640000      -0.51920000
H        0.07180000       1.89480000       0.95330000
H       -0.24060000      -0.50920000      -0.74970000
H        1.69850000      -4.45250000       2.69470000
H        2.11350000      -0.19260000       3.89930000
