15
Properties=species:S:1:pos:R:3 gdb_18671=T pbc="F F F"
N       -0.07030000       1.26640000       0.18770000
C       -0.00290000       0.01930000      -0.00920000
O        1.19540000      -0.63490000      -0.16540000
C        1.13360000      -1.84760000      -0.91310000
O        0.28650000      -2.78520000      -0.32710000
C       -1.03950000      -2.32230000      -0.26390000
C       -1.49520000      -1.83210000       1.07040000
C       -1.21890000      -0.83670000      -0.05450000
H        0.86740000       1.67320000       0.17130000
H        0.82100000      -1.61550000      -1.94250000
H        2.14200000      -2.26240000      -0.90170000
H       -1.72210000      -2.86070000      -0.91590000
H       -2.53090000      -1.96960000       1.35780000
H       -0.77340000      -1.89390000       1.87600000
H       -2.08170000      -0.34740000      -0.48740000
