17
Properties=species:S:1:pos:R:3 gdb_72828=T pbc="F F F"
C       -0.25510000       1.60170000       0.05010000
C        0.08640000       0.13050000       0.02850000
C       -1.04080000      -0.89520000       0.30870000
O       -0.27360000      -1.50070000       1.37960000
C        0.80570000      -0.54870000       1.21450000
C        2.00150000      -1.26170000       0.57890000
O        2.93640000      -1.76450000       1.13970000
C        1.74920000      -1.21630000      -0.93070000
O        0.84650000      -0.14330000      -1.15130000
H        0.65650000       2.20580000       0.05380000
H       -0.83230000       1.86440000      -0.84190000
H       -0.84850000       1.85170000       0.93360000
H       -1.98410000      -0.47810000       0.68000000
H       -1.24290000      -1.59270000      -0.51130000
H        1.04350000       0.00150000       2.12790000
H        2.67400000      -1.03210000      -1.48360000
H        1.33560000      -2.18200000      -1.26280000
