18
Properties=species:S:1:pos:R:3 gdb_78861=T pbc="F F F"
C        0.11250000       1.60880000      -0.14800000
C        0.12280000       0.09220000      -0.12500000
C        0.73200000      -0.75010000      -1.27160000
C        1.22870000      -1.70350000      -0.11340000
C        2.36270000      -0.75850000       0.08420000
N        1.07070000      -0.58440000       0.84210000
C        2.18080000      -0.25640000      -1.32300000
C        3.13060000      -0.30280000      -2.42890000
O        2.65120000       0.94820000      -1.89410000
H        1.09590000       2.02410000      -0.37550000
H       -0.59260000       1.97240000      -0.90350000
H       -0.21050000       1.99030000       0.82600000
H       -0.87080000      -0.29140000       0.12960000
H        0.18950000      -1.00640000      -2.17940000
H        1.10550000      -2.75260000       0.11550000
H        3.26490000      -0.86560000       0.67070000
H        4.18190000      -0.51400000      -2.23700000
H        2.78690000      -0.54040000      -3.43480000
