18
Properties=species:S:1:pos:R:3 gdb_111352=T pbc="F F F"
O        0.03220000       1.49520000      -0.09280000
C        0.07290000       0.08240000       0.05570000
C       -1.31890000      -0.53460000       0.08180000
C       -2.08810000      -0.57850000      -1.26190000
O       -1.33010000      -1.39930000      -2.15960000
C       -2.19910000      -2.04530000      -1.21440000
C       -1.45260000      -2.08490000       0.10680000
C       -0.55720000      -3.11730000       0.66650000
N       -1.90730000      -2.89130000       1.23070000
H       -0.23350000       1.68490000      -0.99800000
H        0.66430000      -0.39420000      -0.73730000
H        0.58320000      -0.10350000       1.00740000
H       -1.92710000      -0.07330000       0.86810000
H       -2.75160000       0.16050000      -1.69540000
H       -2.95520000      -2.72140000      -1.59480000
H       -0.42690000      -4.06660000       0.15480000
H        0.30660000      -2.78880000       1.23910000
H       -1.84280000      -2.36170000       2.09720000
