21
Properties=species:S:1:pos:R:3 gdb_114278=T pbc="F F F"
C        0.08730000       1.50230000       0.15020000
C       -0.08370000      -0.00050000      -0.09280000
C        0.68580000      -0.50520000      -1.30780000
C        2.24840000      -0.67180000      -1.08810000
C        1.93010000      -2.12450000      -0.81440000
C        1.88730000      -3.03070000       0.15490000
C        0.54900000      -3.74980000       0.04490000
O       -0.25650000      -2.93470000      -0.83160000
C        0.62240000      -2.07390000      -1.52900000
H        1.13690000       1.76740000       0.31830000
H       -0.26600000       2.08590000      -0.70740000
H       -0.47960000       1.82660000       1.02860000
H        0.23470000      -0.56060000       0.79470000
H       -1.14540000      -0.23590000      -0.23100000
H        0.42170000       0.07470000      -2.19810000
H        2.80740000      -0.50030000      -2.01240000
H        2.71430000      -0.10420000      -0.27950000
H        2.56670000      -3.17210000       0.98590000
H        0.62470000      -4.77110000      -0.36220000
H        0.04730000      -3.82010000       1.01880000
H        0.62900000      -2.31600000      -2.60140000
