22
Properties=species:S:1:pos:R:3 gdb_96111=T pbc="F F F"
C       -0.02120000       1.53420000      -0.01200000
C        0.05640000       0.02380000      -0.02090000
N       -0.84010000      -0.74400000       0.87050000
C        0.61480000      -0.70440000       1.15340000
C        1.38150000      -2.01240000       1.01410000
C        1.71610000      -2.34720000      -0.44870000
C        0.51370000      -2.09550000      -1.36410000
C        0.14980000      -0.60610000      -1.40790000
O       -1.06210000      -0.38250000      -2.12120000
H        0.89720000       1.97740000      -0.41330000
H       -0.85360000       1.87390000      -0.63610000
H       -0.16260000       1.91940000       1.00340000
H       -1.33120000      -0.11110000       1.49760000
H        0.91280000      -0.07850000       1.99300000
H        2.30340000      -1.95470000       1.60310000
H        0.77700000      -2.81570000       1.45160000
H        2.55840000      -1.72550000      -0.78210000
H        2.04990000      -3.38720000      -0.52720000
H        0.71230000      -2.43470000      -2.38550000
H       -0.35370000      -2.65780000      -0.99750000
H        0.91830000      -0.06950000      -1.97920000
H       -1.75840000      -0.77000000      -1.57570000
