17
Properties=species:S:1:pos:R:3 gdb_52975=T pbc="F F F"
C       -0.00680000       1.47710000      -0.06090000
C       -0.02800000       0.02340000      -0.01410000
C       -0.04740000      -1.18290000       0.01780000
C       -0.03800000      -2.59790000       0.08530000
N       -0.32810000      -3.47990000      -1.08730000
C       -1.15990000      -3.58790000       0.12200000
C       -0.39380000      -4.42040000       1.19800000
N        0.91940000      -4.82520000       0.63850000
C        0.72470000      -3.45690000       1.16160000
H        0.79560000       1.87770000       0.56880000
H        0.16290000       1.84110000      -1.08050000
H       -0.95080000       1.90670000       0.29340000
H       -0.84600000      -2.89630000      -1.74580000
H       -2.22630000      -3.40480000       0.11040000
H       -0.84880000      -4.93500000       2.03340000
H        1.39670000      -5.34720000       1.37480000
H        1.32760000      -3.04050000       1.95730000
