16
Properties=species:S:1:pos:R:3 gdb_30600=T pbc="F F F"
C        0.02700000       1.42580000      -0.13480000
N       -0.02950000      -0.02700000      -0.09070000
C       -1.24180000      -0.65830000       0.10350000
O       -2.26980000      -0.05010000       0.34400000
C       -1.19990000      -2.12930000       0.02850000
C       -2.21360000      -3.03170000      -0.19660000
N       -1.73620000      -4.31580000      -0.20800000
C       -0.44470000      -4.20680000       0.02030000
N       -0.05940000      -2.90870000       0.15270000
H        1.04750000       1.75720000       0.07260000
H       -0.29080000       1.83030000      -1.10420000
H       -0.64520000       1.81840000       0.62860000
H        0.65610000      -0.52010000      -0.64180000
H       -3.25460000      -2.80470000      -0.36480000
H        0.25470000      -5.02580000       0.10190000
H        0.84430000      -2.58410000       0.45500000
