18
Properties=species:S:1:pos:R:3 gdb_22147=T pbc="F F F"
C        1.35900000      -0.16310000       0.20610000
C       -0.11440000      -0.45090000       0.19530000
C       -0.85470000      -0.55300000       1.50780000
O       -0.30160000      -1.49830000       2.41360000
C       -0.56520000      -2.85590000       2.09700000
C        0.34460000      -3.44020000       1.10840000
C        1.10110000      -3.94510000       0.32260000
N       -0.83960000      -0.59010000      -0.84800000
O       -0.10090000      -0.42120000      -2.02670000
H        1.78450000      -0.41070000       1.17990000
H        1.86590000      -0.73810000      -0.57110000
H        1.54280000       0.89820000      -0.00070000
H       -0.78920000       0.40460000       2.03860000
H       -1.91240000      -0.76710000       1.30470000
H       -0.46710000      -3.40300000       3.04130000
H       -1.60510000      -2.97530000       1.75580000
H        1.76160000      -4.38470000      -0.38340000
H       -0.76210000      -0.59140000      -2.70580000
