19
Properties=species:S:1:pos:R:3 gdb_63109=T pbc="F F F"
C        0.00910000       1.54460000       0.03420000
C        0.03750000       0.02960000       0.03070000
C       -1.19490000      -0.63030000      -0.56150000
C        1.31310000      -0.72180000      -0.19300000
O        2.45400000      -0.01850000       0.28500000
C        1.96010000      -0.08930000       1.64720000
C        0.66000000      -0.76670000       1.19830000
C       -0.00600000      -1.79030000       1.92100000
C       -0.56480000      -2.64220000       2.56350000
H        0.98360000       1.96670000       0.28610000
H       -0.26110000       1.91420000      -0.96120000
H       -0.73500000       1.92370000       0.74290000
H       -1.36190000      -0.27000000      -1.58220000
H       -1.10090000      -1.71910000      -0.59260000
H       -2.08550000      -0.39650000       0.03120000
H        1.46790000      -1.49540000      -0.93810000
H        2.58930000      -0.75290000       2.24830000
H        1.88680000       0.89480000       2.12280000
H       -1.05600000      -3.39830000       3.12410000
