17
Properties=species:S:1:pos:R:3 gdb_84903=T pbc="F F F"
O        0.09500000       1.42500000      -0.03370000
C        0.04630000       0.01090000      -0.02330000
C        0.78480000      -0.56980000       1.16080000
C        0.15360000      -1.04010000       2.23480000
C       -1.34360000      -1.03390000       2.36380000
N       -1.94570000      -0.18060000       1.33890000
C       -1.41610000      -0.49920000       0.00830000
C       -2.23610000       0.13820000      -1.02540000
N       -2.91000000       0.60310000      -1.83990000
H       -0.39340000       1.71070000       0.75020000
H        0.51500000      -0.30780000      -0.95980000
H        1.86930000      -0.55470000       1.11150000
H        0.70900000      -1.45470000       3.07130000
H       -1.71290000      -2.07770000       2.32340000
H       -1.63040000      -0.64430000       3.34790000
H       -2.95570000      -0.26210000       1.35130000
H       -1.41110000      -1.58510000      -0.20090000
