16
Properties=species:S:1:pos:R:3 gdb_31987=T pbc="F F F"
C        0.16380000       1.40790000       0.10200000
O        0.00870000      -0.01320000       0.08600000
C        0.58480000      -0.70130000       1.06770000
C        0.72020000      -2.03700000       1.27970000
N        1.38810000      -2.21640000       2.48440000
C        1.62110000      -1.02750000       2.93560000
C        2.37720000      -0.62390000       4.15350000
O        3.70250000      -0.18850000       3.86860000
O        1.14970000      -0.03320000       2.10680000
H        1.22130000       1.68810000       0.06800000
H       -0.34610000       1.76790000      -0.79150000
H       -0.29520000       1.84340000       0.99470000
H        0.38680000      -2.85550000       0.66560000
H        1.88810000       0.22410000       4.64150000
H        2.36210000      -1.47750000       4.84290000
H        4.16190000      -0.92890000       3.45730000
