25
Properties=species:S:1:pos:R:3 gdb_117722=T pbc="F F F"
C        0.15480000       1.56020000      -0.18100000
C        0.02820000       0.05250000      -0.02160000
O        0.70040000      -0.55000000      -1.11110000
C        0.73340000      -1.98400000      -1.19210000
C        1.39840000      -2.60320000       0.05020000
C       -0.68290000      -2.55420000      -1.37810000
C        1.55680000      -2.25880000      -2.46550000
C        2.98930000      -1.71730000      -2.45340000
O        3.65710000      -1.95910000      -3.68560000
H        1.20710000       1.85890000      -0.17850000
H       -0.28960000       1.88420000      -1.12630000
H       -0.35520000       2.07540000       0.63870000
H        0.46640000      -0.26080000       0.93750000
H       -1.03400000      -0.23400000      -0.00280000
H        0.75630000      -2.52760000       0.93240000
H        1.59780000      -3.66600000      -0.11840000
H        2.34640000      -2.10830000       0.27700000
H       -1.18030000      -2.06790000      -2.22250000
H       -0.63730000      -3.62920000      -1.57810000
H       -1.30020000      -2.41390000      -0.48600000
H        1.58530000      -3.33740000      -2.65550000
H        1.02190000      -1.79880000      -3.30730000
H        2.97850000      -0.64940000      -2.20020000
H        3.59140000      -2.22990000      -1.69670000
H        3.19680000      -1.45900000      -4.36700000
