22
Properties=species:S:1:pos:R:3 gdb_81965=T pbc="F F F"
C        0.02110000       1.59920000      -0.01760000
C        0.11640000       0.07300000       0.00850000
C        0.86460000      -0.55480000      -1.16450000
C        2.34970000      -0.58000000      -1.12530000
N        1.57020000      -1.77270000      -0.73160000
C        1.34060000      -1.89790000       0.72550000
C        2.55660000      -2.45690000       1.45530000
C        0.81120000      -0.53210000       1.25150000
O        1.83690000       0.35500000       1.69430000
H        1.01190000       2.05540000       0.02330000
H       -0.47630000       1.93390000      -0.93380000
H       -0.55680000       1.97440000       0.83300000
H       -0.90210000      -0.33820000      -0.00920000
H        0.34870000      -0.60700000      -2.12030000
H        2.90550000      -0.70560000      -2.05040000
H        2.85040000      -0.00120000      -0.35740000
H        0.51550000      -2.61640000       0.82620000
H        3.40930000      -1.77470000       1.38850000
H        2.33490000      -2.63300000       2.51430000
H        2.85440000      -3.41040000       1.01170000
H        0.08860000      -0.68590000       2.06580000
H        2.24880000      -0.03410000       2.47150000
