18
Properties=species:S:1:pos:R:3 gdb_38014=T pbc="F F F"
C       -0.08460000       1.60070000      -0.00520000
C        1.46490000       1.63480000       0.05430000
C        2.07180000       1.43870000       1.38590000
C        1.69890000       0.26670000       1.96580000
C        2.70540000      -0.84820000       1.61620000
N        1.76930000      -1.06100000       0.43430000
C        1.43740000       0.03670000      -0.53020000
C       -0.02980000       0.07880000      -0.02360000
C        0.60140000      -0.54660000       1.24520000
H       -0.60810000       2.08740000       0.82100000
H       -0.45950000       2.00010000      -0.95200000
H        1.96030000       2.38100000      -0.56820000
H        3.09660000       1.77830000       1.52810000
H        3.73250000      -0.55260000       1.39510000
H        2.68410000      -1.76920000       2.20780000
H        1.77170000      -0.10180000      -1.55640000
H       -0.82210000      -0.52070000      -0.47300000
H        0.05210000      -1.28020000       1.83970000
