21
Properties=species:S:1:pos:R:3 gdb_95806=T pbc="F F F"
C        0.00510000       1.55510000      -0.00180000
C        0.04360000       0.02440000       0.00770000
C        0.73420000      -0.53680000      -1.24290000
O        0.76170000      -1.95910000      -1.24050000
C        1.49030000      -2.46630000      -0.14200000
C        0.83970000      -2.05630000       1.18510000
O        1.62750000      -2.45400000       2.30510000
C        0.72920000      -0.52740000       1.26710000
O        2.02470000       0.04450000       1.37060000
H        1.01630000       1.96890000       0.02210000
H       -0.50240000       1.92870000      -0.89730000
H       -0.53250000       1.93670000       0.87220000
H       -0.98470000      -0.36100000       0.01120000
H        0.18910000      -0.24810000      -2.14620000
H        1.75740000      -0.13760000      -1.31280000
H        1.50050000      -3.55730000      -0.24890000
H        2.53040000      -2.10530000      -0.15130000
H       -0.16960000      -2.49050000       1.24130000
H        1.83300000      -3.39070000       2.22450000
H        0.13130000      -0.26710000       2.15610000
H        2.50020000      -0.49860000       2.01180000
