16
Properties=species:S:1:pos:R:3 gdb_30386=T pbc="F F F"
C        0.03190000       1.46920000      -0.02510000
N        0.12490000       0.02460000      -0.06090000
C        0.61990000      -0.61430000       0.92750000
C        0.71650000      -2.06440000       0.91160000
C        1.25410000      -2.72290000       1.95420000
N        1.50380000      -4.07070000       2.07680000
O        1.69980000      -2.05470000       3.06670000
C        1.57440000      -0.69330000       3.03890000
N        1.10350000       0.02020000       2.11160000
H        0.58320000       1.88360000      -0.87900000
H       -1.01630000       1.76320000      -0.16500000
H        0.40850000       1.92890000       0.89520000
H        0.35770000      -2.60080000       0.04330000
H        0.99010000      -4.65460000       1.43410000
H        1.48840000      -4.41300000       3.02730000
H        1.95410000      -0.27490000       3.96710000
