12
Properties=species:S:1:pos:R:3 gdb_7884=T pbc="F F F"
N        0.08850000       1.34320000       0.00740000
C       -0.05750000       0.01150000       0.00090000
C       -1.13000000      -0.81950000       0.00290000
C       -0.64510000      -2.18790000      -0.00780000
O       -1.19780000      -3.24470000      -0.01000000
O        0.79200000      -2.13810000      -0.01610000
C        1.16660000      -0.83650000      -0.01120000
N        2.33920000      -0.36590000      -0.01560000
H        1.02660000       1.71160000       0.00400000
H       -0.69430000       1.97120000       0.01600000
H       -2.18110000      -0.57940000       0.01070000
H        3.04240000      -1.10550000      -0.02390000
