19
Properties=species:S:1:pos:R:3 gdb_106991=T pbc="F F F"
C        0.14640000       1.54290000      -0.13810000
C       -0.08550000       0.02900000      -0.02180000
C        0.47770000      -0.52760000       1.24540000
O        1.91890000      -0.69410000       1.36590000
C        1.09240000      -1.82460000       1.63380000
C        0.67200000      -1.71210000       3.11130000
C        1.74970000      -1.73630000       4.18620000
C        0.03020000      -0.34610000       2.69870000
O       -0.65770000       0.44960000       3.26760000
H        1.21620000       1.77070000      -0.13580000
H       -0.28410000       1.93000000      -1.06580000
H       -0.31590000       2.07000000       0.70130000
H       -1.16040000      -0.18780000      -0.04800000
H        0.37070000      -0.49600000      -0.86850000
H        1.22720000      -2.70920000       1.02230000
H       -0.15050000      -2.39860000       3.35180000
H        2.59670000      -1.11390000       3.88740000
H        1.35310000      -1.34840000       5.12930000
H        2.11050000      -2.75430000       4.36470000
