23
Properties=species:S:1:pos:R:3 gdb_95831=T pbc="F F F"
C        0.86690000       1.38180000       0.21580000
C       -0.10830000       0.26760000      -0.17040000
C        0.35000000      -0.49290000      -1.42930000
C       -0.27580000      -1.88240000      -1.60020000
O        0.40630000      -2.88570000      -0.86680000
C        0.15210000      -2.92500000       0.52930000
C        0.94380000      -4.10720000       1.07660000
C        0.51980000      -1.61570000       1.24100000
O       -0.39610000      -0.57710000       0.94410000
H        1.85260000       0.97540000       0.46730000
H        1.00000000       2.08430000      -0.61390000
H        0.49100000       1.93350000       1.08160000
H       -1.08320000       0.72230000      -0.38680000
H        0.10990000       0.12660000      -2.30210000
H        1.43910000      -0.62140000      -1.43210000
H       -1.34460000      -1.86440000      -1.33540000
H       -0.19510000      -2.19140000      -2.64740000
H       -0.92670000      -3.08470000       0.69790000
H        2.01950000      -3.93720000       0.96270000
H        0.72630000      -4.26580000       2.13680000
H        0.68570000      -5.01580000       0.52740000
H        0.46130000      -1.77470000       2.32440000
H        1.55710000      -1.34160000       1.00210000
