22
Properties=species:S:1:pos:R:3 gdb_115674=T pbc="F F F"
C        0.29390000       1.40160000       0.59480000
C        0.17860000      -0.06060000       0.15390000
C       -1.22290000      -0.63150000       0.37270000
C       -2.30870000      -0.12600000      -0.62530000
C       -2.24030000      -1.48400000      -1.37000000
C       -1.46840000      -2.09340000      -0.17570000
C       -0.24230000      -2.92260000      -0.51510000
N        0.17120000      -3.77290000       0.47170000
O        0.35290000      -2.82620000      -1.57340000
H        1.30280000       1.78780000       0.42050000
H       -0.40470000       2.04280000       0.04660000
H        0.07370000       1.51290000       1.66280000
H        0.45630000      -0.16090000      -0.90130000
H        0.90350000      -0.66670000       0.71300000
H       -1.49260000      -0.51880000       1.42850000
H       -3.27420000       0.04640000      -0.14200000
H       -2.05480000       0.76470000      -1.20640000
H       -3.18680000      -1.95960000      -1.63610000
H       -1.59640000      -1.45520000      -2.25110000
H       -2.12370000      -2.64710000       0.50420000
H       -0.29390000      -3.83220000       1.35990000
H        1.02080000      -4.29450000       0.33100000
