16
Properties=species:S:1:pos:R:3 gdb_81677=T pbc="F F F"
O        0.04170000       1.26120000      -0.18210000
C        0.01710000      -0.13380000      -0.01250000
C        0.09500000      -0.60530000       1.47270000
C       -1.40780000      -0.26500000       1.59860000
C       -1.45210000      -0.61900000       0.09230000
O       -1.47290000      -2.04060000      -0.06570000
C       -0.59910000      -2.75320000       0.68850000
N       -0.60650000      -4.01110000       0.63060000
O        0.25990000      -2.03140000       1.47330000
H        0.94580000       1.56780000      -0.05610000
H        0.65670000      -0.66900000      -0.72530000
H        0.84080000      -0.20200000       2.15820000
H       -2.01210000      -0.86270000       2.28250000
H       -1.56240000       0.80150000       1.75710000
H       -2.21090000      -0.21340000      -0.57450000
H        0.10900000      -4.38720000       1.24860000
