19
Properties=species:S:1:pos:R:3 gdb_114008=T pbc="F F F"
C        0.92820000       1.19430000       0.12460000
C       -0.15570000       0.14820000      -0.16490000
C        0.17390000      -0.66470000      -1.39520000
O        1.19720000      -1.66370000      -1.27940000
C       -0.13200000      -2.09050000      -1.60160000
C       -0.81390000      -2.96990000      -0.58670000
O       -0.37840000      -4.33000000      -0.72920000
C        0.76090000      -4.67710000      -0.08880000
O        1.23080000      -5.77060000      -0.17390000
H        1.89400000       0.70970000       0.29470000
H        1.04370000       1.88730000      -0.71560000
H        0.67880000       1.78230000       1.01220000
H       -0.27540000      -0.50720000       0.70270000
H       -1.12170000       0.64360000      -0.32730000
H        0.26660000      -0.06600000      -2.30500000
H       -0.24760000      -2.44330000      -2.62780000
H       -0.62500000      -2.61820000       0.43170000
H       -1.89380000      -2.99170000      -0.75570000
H        1.18670000      -3.85190000       0.51070000
