19
Properties=species:S:1:pos:R:3 gdb_56228=T pbc="F F F"
C        0.10320000       1.49140000      -0.14710000
C       -0.00430000      -0.01130000       0.03480000
O       -0.13680000      -0.51990000       1.12470000
C        0.06380000      -0.85070000      -1.23380000
C       -0.05230000      -2.33980000      -0.95550000
O        0.02670000      -3.00750000      -2.22830000
C       -0.05850000      -4.35590000      -2.18840000
C        0.03700000      -4.93600000      -3.57950000
O       -0.19190000      -4.98530000      -1.17080000
H        1.04960000       1.75030000      -0.63500000
H       -0.69910000       1.85570000      -0.79850000
H        0.04240000       1.98610000       0.82280000
H       -0.73070000      -0.52500000      -1.91790000
H        1.00430000      -0.62990000      -1.75530000
H        0.74940000      -2.69230000      -0.30220000
H       -0.99740000      -2.58680000      -0.46600000
H        0.98420000      -4.64650000      -4.04340000
H       -0.03370000      -6.02150000      -3.52450000
H       -0.76640000      -4.54080000      -4.20760000
