13
Properties=species:S:1:pos:R:3 gdb_20527=T pbc="F F F"
C       -0.02180000       1.49660000      -0.05720000
C       -0.02560000      -0.00160000       0.07150000
O       -0.04770000      -0.62170000       1.10160000
N       -0.00210000      -0.71660000      -1.16420000
C       -0.00080000      -2.07100000      -1.33420000
C        0.02600000      -2.23560000      -2.68840000
N        0.03970000      -0.99810000      -3.28580000
N        0.02270000      -0.08500000      -2.37460000
H        0.86580000       1.83110000      -0.60040000
H       -0.88700000       1.83250000      -0.63460000
H       -0.04110000       1.92430000       0.94450000
H       -0.01840000      -2.74330000      -0.49510000
H        0.03630000      -3.14160000      -3.27150000
