18
Properties=species:S:1:pos:R:3 gdb_44056=T pbc="F F F"
O       -0.06570000       0.00200000       0.01230000
C       -0.01320000       1.20120000       0.01850000
N       -1.00160000       2.18260000       0.04460000
C       -0.08030000       3.30530000       0.03250000
C        0.42400000       3.88180000       1.39150000
C        1.61200000       2.85270000       1.35950000
C        1.07650000       2.30000000       0.00310000
C        1.55700000       2.86910000      -1.36710000
C        0.36900000       3.89840000      -1.33840000
H       -2.01110000       2.11130000       0.06430000
H        0.72960000       4.93000000       1.35120000
H       -0.27940000       3.75610000       2.21660000
H        2.60080000       3.31160000       1.28500000
H        1.63410000       2.12720000       2.17500000
H        2.54820000       3.32720000      -1.32710000
H        1.54570000       2.15360000      -2.19150000
H       -0.36710000       3.78290000      -2.13620000
H        0.67630000       4.94610000      -1.29750000
