17
Properties=species:S:1:pos:R:3 gdb_89654=T pbc="F F F"
C       -0.03880000       1.52750000       0.05430000
C        0.15600000       0.04760000      -0.02820000
N       -0.72160000      -0.91310000       0.66620000
C        0.74890000      -0.94010000       0.94340000
C        1.36230000      -1.78190000      -0.17770000
C        0.71920000      -0.77690000      -1.21020000
O       -0.21490000      -1.26310000      -2.12470000
C        1.25150000      -0.70190000       2.25440000
N        1.66690000      -0.50050000       3.31650000
H        0.85030000       2.05720000      -0.30110000
H       -0.88590000       1.83760000      -0.56740000
H       -0.23330000       1.84520000       1.08390000
H       -1.18180000      -0.42570000       1.43500000
H        2.45310000      -1.76510000      -0.18890000
H        0.99910000      -2.81020000      -0.22960000
H        1.47860000      -0.23300000      -1.77630000
H       -0.93730000      -1.63040000      -1.59710000
