17
Properties=species:S:1:pos:R:3 gdb_105360=T pbc="F F F"
O        0.18820000       1.31640000      -0.17500000
C        0.10730000      -0.07390000       0.06740000
C       -1.33650000      -0.57250000       0.06310000
C       -2.13600000      -0.47200000      -1.30750000
C       -2.28310000      -1.99540000      -1.29080000
O       -0.96520000      -2.55100000      -1.24670000
C       -1.54740000      -2.11070000      -0.02130000
C       -2.16210000       0.04970000       1.15650000
O       -1.78650000       0.94590000       1.87660000
H       -0.22290000       1.74020000       0.58880000
H        0.65470000      -0.57440000      -0.73490000
H        0.58180000      -0.34920000       1.02230000
H       -3.08710000       0.05820000      -1.21030000
H       -1.56450000      -0.04850000      -2.13480000
H       -3.06700000      -2.61400000      -1.71070000
H       -1.61020000      -2.82980000       0.78740000
H       -3.19100000      -0.36310000       1.26450000
