15
Properties=species:S:1:pos:R:3 gdb_131528=T pbc="F F F"
O        0.46420000       1.23310000       0.37100000
C        0.07440000      -0.05550000       0.01420000
C       -1.48610000      -0.38600000      -0.05360000
N       -1.28770000      -0.64170000      -1.49210000
C        0.06760000      -0.47510000      -1.45890000
N        0.69600000      -0.90880000      -2.49780000
N       -0.37820000      -1.35970000      -3.28670000
C       -1.62550000      -1.37770000      -2.62590000
N       -2.76960000      -1.85120000      -2.92550000
H        0.11390000       1.85550000      -0.27640000
H        0.62780000      -0.73930000       0.66090000
H       -1.79660000      -1.26740000       0.51280000
H       -2.14500000       0.45800000       0.16290000
H       -0.15160000      -1.96380000      -4.05840000
H       -2.74810000      -2.34300000      -3.81560000
