21
Properties=species:S:1:pos:R:3 gdb_61664=T pbc="F F F"
N        0.03640000       1.51690000      -0.03660000
C        0.00760000       0.05360000      -0.09700000
C       -1.42710000      -0.48760000       0.06390000
C       -2.07240000      -0.14060000       1.40050000
C       -2.66630000       1.27320000       1.65870000
C       -3.84390000       0.59990000       2.41260000
C       -3.47980000      -0.73150000       1.70180000
C        0.61870000      -0.48180000      -1.33550000
N        1.09830000      -0.85710000      -2.31880000
H        0.99190000       1.85210000      -0.11500000
H       -0.47000000       1.90260000      -0.82910000
H        0.60880000      -0.31870000       0.74210000
H       -2.04390000      -0.11140000      -0.76340000
H       -1.39060000      -1.57750000      -0.05280000
H       -1.38490000      -0.40310000       2.21450000
H       -2.04580000       1.99410000       2.19230000
H       -3.00210000       1.73430000       0.72400000
H       -3.65940000       0.54620000       3.48950000
H       -4.84750000       1.00090000       2.25390000
H       -4.05660000      -0.86360000       0.77990000
H       -3.53100000      -1.65930000       2.27730000
