19
Properties=species:S:1:pos:R:3 gdb_64953=T pbc="F F F"
C        0.16350000       1.53080000      -0.03200000
C        0.16900000       0.01410000      -0.08300000
C        1.50350000      -0.70710000       0.09140000
C        0.50810000      -0.74710000       1.19860000
C       -0.79850000      -0.70690000      -0.97570000
O       -0.80010000      -1.91660000      -1.07610000
C       -1.77750000       0.11100000      -1.78970000
C       -2.01020000      -0.28460000      -3.19700000
O       -2.96230000      -0.57270000      -2.19270000
H        0.95800000       1.88620000       0.63060000
H        0.34010000       1.97600000      -1.01740000
H       -0.78130000       1.92760000       0.35530000
H        1.63520000      -1.61050000      -0.49200000
H        2.38180000      -0.07980000       0.19750000
H        0.68230000      -0.14610000       2.08450000
H       -0.02680000      -1.67590000       1.35620000
H       -1.93020000       1.15120000      -1.51580000
H       -2.29210000       0.47860000      -3.92130000
H       -1.46790000      -1.14660000      -3.58050000
