18
Properties=species:S:1:pos:R:3 gdb_10991=T pbc="F F F"
C       -0.16590000       1.54120000       0.03180000
C        0.01670000       0.03010000       0.02020000
C        1.15300000      -0.60140000      -0.83520000
C        2.15180000      -0.23850000       0.28750000
C        0.89190000      -0.60270000       1.14910000
O        0.68530000      -0.20740000       2.46480000
C        0.74830000      -2.09250000       0.78110000
O        0.94800000      -2.01760000      -0.64470000
H        0.77310000       2.09240000       0.12390000
H       -0.65650000       1.87280000      -0.88940000
H       -0.80110000       1.83560000       0.87320000
H       -0.95140000      -0.46060000      -0.12620000
H        1.31240000      -0.38760000      -1.89000000
H        3.04130000      -0.86730000       0.37550000
H        2.41360000       0.81690000       0.33710000
H        1.32600000      -0.65520000       3.02820000
H        1.51330000      -2.73190000       1.24250000
H       -0.24440000      -2.49390000       1.01670000
