21
Properties=species:S:1:pos:R:3 gdb_74673=T pbc="F F F"
C       -0.05040000       1.45360000       0.07910000
C       -0.00890000      -0.03320000      -0.00230000
C       -0.04290000      -0.86960000      -1.04590000
C        0.03680000      -2.25120000      -0.40950000
C       -0.92920000      -2.13220000       0.82970000
C       -0.58880000      -3.30440000       1.74800000
C        0.96990000      -3.25580000       1.65820000
C        1.12930000      -2.06800000       0.71110000
C        0.08950000      -0.98560000       1.19130000
H        0.84680000       1.85540000       0.56810000
H       -0.12350000       1.90500000      -0.91460000
H       -0.90660000       1.80080000       0.67240000
H       -0.11070000      -0.64910000      -2.10240000
H        0.02760000      -3.13690000      -1.04830000
H       -1.98090000      -1.88560000       0.66870000
H       -0.95770000      -3.15520000       2.76780000
H       -1.00290000      -4.25020000       1.38410000
H        1.44340000      -3.08040000       2.62950000
H        1.39740000      -4.17540000       1.24590000
H        2.13830000      -1.75720000       0.43140000
H        0.13450000      -0.56590000       2.19940000
