17
Properties=species:S:1:pos:R:3 gdb_113368=T pbc="F F F"
O       -0.09860000       1.20410000      -0.79840000
C       -0.12580000       0.11300000       0.10390000
C       -1.40280000      -0.67890000      -0.05660000
O       -1.44700000      -1.64050000      -1.11190000
C       -1.55430000      -2.12440000       0.24440000
C       -0.44130000      -3.04370000       0.70470000
O       -0.36780000      -4.17810000      -0.13750000
C       -2.95730000      -2.55360000       0.58730000
O       -3.23410000      -3.27940000       1.50460000
H       -0.08720000       0.84290000      -1.69170000
H        0.74780000      -0.53870000      -0.02180000
H       -0.08790000       0.54590000       1.10910000
H       -2.30080000      -0.05930000       0.00250000
H        0.51800000      -2.51370000       0.75610000
H       -0.68940000      -3.40970000       1.70430000
H       -0.24490000      -3.85040000      -1.03610000
H       -3.72600000      -2.11510000      -0.08740000
