27
Properties=species:S:1:pos:R:3 gdb_109583=T pbc="F F F"
C        0.96330000       0.77910000       0.42410000
C        0.79550000      -0.71320000       0.11200000
C        1.38780000      -1.11140000      -1.23700000
C        2.93940000      -1.21860000      -1.44320000
C        3.79000000      -1.46860000      -0.19790000
C        2.67150000      -2.45760000      -2.36320000
C        3.61220000      -3.65600000      -2.34280000
C        1.22430000      -2.57120000      -1.77790000
C        0.98370000      -3.66950000      -0.74190000
H        2.01900000       1.06920000       0.44880000
H        0.47250000       1.39710000      -0.33630000
H        0.52650000       1.03580000       1.39450000
H        1.24130000      -1.30770000       0.91770000
H       -0.27470000      -0.95990000       0.11400000
H        0.99130000      -0.42280000      -1.99370000
H        3.37100000      -0.36560000      -1.97800000
H        3.42760000      -2.30240000       0.40990000
H        4.82460000      -1.69560000      -0.47720000
H        3.81340000      -0.58270000       0.44540000
H        2.59320000      -2.10350000      -3.39750000
H        3.74500000      -4.07020000      -1.33910000
H        3.23240000      -4.46060000      -2.98280000
H        4.60400000      -3.38070000      -2.71920000
H        0.44990000      -2.66460000      -2.54750000
H        1.70850000      -3.65560000       0.07690000
H       -0.01230000      -3.57100000      -0.29680000
H        1.03630000      -4.65920000      -1.20830000
