18
Properties=species:S:1:pos:R:3 gdb_92972=T pbc="F F F"
C        0.01880000       1.49290000       0.16150000
N        0.14830000       0.04820000       0.02530000
H       -1.34150000      -0.59510000      -0.97940000
C        0.69380000      -0.64320000       1.21050000
C        1.49200000      -1.77210000       0.62060000
C        1.60840000      -1.63570000      -0.69580000
C        0.87520000      -0.40690000      -1.17440000
C       -0.09440000      -0.74700000      -2.32850000
O       -1.37220000      -0.81500000      -1.93910000
O        0.27780000      -0.95430000      -3.45140000
H        0.99030000       1.99620000       0.30080000
H       -0.45970000       1.90830000      -0.73030000
H       -0.61470000       1.72730000       1.02200000
H        1.33760000       0.02440000       1.81040000
H       -0.11360000      -0.98090000       1.87360000
H        1.92220000      -2.56130000       1.22390000
H        2.13550000      -2.28320000      -1.38320000
H        1.57750000       0.34500000      -1.56800000
