16
Properties=species:S:1:pos:R:3 gdb_42692=T pbc="F F F"
O        0.01020000       0.00060000      -0.04940000
C       -0.01780000       1.20570000      -0.00750000
C       -1.22760000       2.08830000      -0.02220000
C       -1.21650000       3.23830000       0.99410000
C       -0.02090000       3.33230000       1.92470000
C        1.15740000       3.24180000       0.97170000
C        1.17230000       2.12570000      -0.02890000
N        0.74090000       3.48900000      -0.42330000
C       -0.74580000       3.47020000      -0.40720000
H       -2.17680000       1.67320000      -0.33440000
H       -2.18540000       3.59090000       1.32710000
H       -0.01710000       4.30460000       2.42960000
H       -0.00260000       2.55580000       2.69600000
H        2.10910000       3.67280000       1.26800000
H        2.10770000       1.74960000      -0.42820000
H       -1.23740000       4.10330000      -1.13340000
