14
Properties=species:S:1:pos:R:3 gdb_133251=T pbc="F F F"
C       -0.03240000       1.45370000       0.00970000
N       -0.00670000      -0.00020000       0.05300000
N       -0.04520000      -0.64150000      -1.15950000
N       -0.02700000      -1.89360000      -1.21810000
C        0.03390000      -2.73470000      -0.05190000
N        0.05020000      -4.00630000      -0.16890000
C        0.07440000      -2.05470000       1.22870000
C        0.05200000      -0.71670000       1.21710000
F        0.08370000       0.03560000       2.30650000
H        0.86990000       1.87440000       0.46180000
H       -0.07920000       1.72890000      -1.04340000
H       -0.90900000       1.84510000       0.53310000
H        0.01410000      -4.24670000      -1.16180000
H        0.12090000      -2.61310000       2.15220000
