15
Properties=species:S:1:pos:R:3 gdb_48426=T pbc="F F F"
O        0.14200000      -0.16250000       0.06090000
C        0.09000000       1.03620000      -0.02950000
C        1.33560000       1.91710000      -0.08670000
C        1.46020000       2.80520000       1.22790000
N        2.55730000       2.21570000       1.98820000
C        3.07270000       1.30790000       1.25990000
N        2.56120000       1.12920000      -0.02790000
C        1.26500000       2.81230000      -1.31770000
O        0.28190000       3.43260000      -1.63050000
H       -0.86610000       1.59160000      -0.08420000
H        1.68460000       3.84710000       0.97490000
H        0.53120000       2.80940000       1.80850000
H        3.91240000       0.69550000       1.57410000
H        2.44470000       0.16350000      -0.31870000
H        2.21590000       2.85470000      -1.89150000
