16
Properties=species:S:1:pos:R:3 gdb_3225=T pbc="F F F"
C       -0.02070000       1.53000000       0.04160000
C        0.02360000       0.03120000       0.00900000
C       -0.88250000      -0.87660000       0.79720000
C        0.61040000      -0.95630000       1.01280000
C        1.33300000      -1.68820000      -0.15410000
N        0.31800000      -2.17130000      -1.12750000
C        0.75510000      -0.75080000      -1.13320000
H        0.96050000       1.96670000      -0.18160000
H       -0.73340000       1.92630000      -0.69290000
H       -0.32790000       1.89130000       1.02830000
H       -1.41930000      -0.37940000       1.60020000
H       -1.41390000      -1.69130000       0.32220000
H        1.08010000      -0.74910000       1.96610000
H        2.31820000      -2.13330000      -0.10600000
H        0.82710000      -2.63880000      -1.87740000
H        1.18780000      -0.29800000      -2.01670000
