16
Properties=species:S:1:pos:R:3 gdb_15062=T pbc="F F F"
O       -0.00460000       1.36210000       0.11380000
C        0.01120000      -0.05610000       0.14870000
C       -1.44340000      -0.53060000      -0.04040000
C       -1.48510000      -1.97780000      -0.22120000
C       -1.49390000      -3.16870000      -0.38240000
C       -2.30660000      -0.03570000       1.11670000
C       -3.42660000      -0.79460000       1.67840000
O       -2.16910000      -0.72020000       2.36030000
H        0.84730000       1.68300000       0.42230000
H        0.63510000      -0.47300000      -0.65420000
H        0.38400000      -0.43970000       1.10820000
H       -1.81680000      -0.04480000      -0.95330000
H       -1.50640000      -4.22130000      -0.52240000
H       -2.31310000       1.04960000       1.20040000
H       -4.24820000      -0.26240000       2.15570000
H       -3.66870000      -1.77170000       1.26680000
