21
Properties=species:S:1:pos:R:3 gdb_73438=T pbc="F F F"
C       -0.01660000       1.48990000       0.05390000
C        0.01120000      -0.01940000      -0.01190000
C        1.01980000      -0.68740000      -0.95880000
C        0.20160000      -1.76420000      -1.71440000
C       -0.89110000      -2.17980000      -0.69180000
C       -0.22960000      -2.96860000       0.42970000
C        0.06680000      -2.17990000       1.46530000
C       -0.43600000      -0.79310000       1.24690000
C       -1.25810000      -0.83230000      -0.02310000
H        0.92420000       1.89060000       0.44950000
H       -0.16890000       1.92680000      -0.94060000
H       -0.82530000       1.84650000       0.70040000
H        1.45340000       0.04820000      -1.64320000
H        1.84960000      -1.14440000      -0.41020000
H       -0.27890000      -1.32210000      -2.59530000
H        0.81420000      -2.60490000      -2.05750000
H       -1.72970000      -2.69990000      -1.16320000
H        0.07590000      -4.00260000       0.31220000
H        0.61980000      -2.47600000       2.34960000
H       -0.74220000      -0.18830000       2.09510000
H       -2.24690000      -0.39570000      -0.10600000
