20
Properties=species:S:1:pos:R:3 gdb_116349=T pbc="F F F"
O       -0.03210000       1.45140000       0.00300000
C        0.04900000       0.04230000       0.05840000
C       -1.33750000      -0.59340000       0.00450000
O       -1.92480000      -0.15980000      -1.21830000
C       -3.24090000      -0.67470000      -1.35310000
C       -3.20760000      -2.18630000      -1.58190000
N       -2.29230000      -2.90230000      -0.67350000
C       -0.88030000      -2.92860000      -1.05730000
C       -1.32160000      -2.10740000       0.09900000
H       -0.60720000       1.65090000      -0.74540000
H        0.65930000      -0.36370000      -0.76330000
H        0.53900000      -0.21820000       1.00220000
H       -1.93380000      -0.18910000       0.84060000
H       -3.82410000      -0.43280000      -0.45040000
H       -3.70400000      -0.16390000      -2.20220000
H       -4.21650000      -2.59300000      -1.44140000
H       -2.91620000      -2.39600000      -2.61730000
H       -0.36740000      -3.87410000      -0.90060000
H       -0.59560000      -2.39570000      -1.96250000
H       -1.15380000      -2.48420000       1.10700000
