23
Properties=species:S:1:pos:R:3 gdb_100944=T pbc="F F F"
C       -0.10110000       1.63400000       0.22480000
C       -0.08560000       0.10770000       0.32690000
C       -1.34420000      -0.54610000      -0.26650000
O       -1.54010000      -0.16970000      -1.62340000
C       -1.35580000      -2.09490000      -0.07740000
C       -2.74460000      -2.56970000       0.35120000
O       -2.70340000      -3.97580000       0.55430000
C       -0.91930000      -2.84220000      -1.34630000
O        0.28380000      -2.32030000      -1.92160000
H        0.82630000       2.06780000       0.61090000
H       -0.22500000       1.94840000      -0.81450000
H       -0.93290000       2.05740000       0.79940000
H        0.79390000      -0.29440000      -0.19330000
H        0.00740000      -0.19940000       1.37680000
H       -2.21410000      -0.12760000       0.25880000
H       -0.77810000      -0.52010000      -2.10620000
H       -0.65980000      -2.35480000       0.73240000
H       -3.03890000      -2.04600000       1.27450000
H       -3.47420000      -2.29770000      -0.42880000
H       -3.59330000      -4.27910000       0.75540000
H       -0.82500000      -3.91230000      -1.13670000
H       -1.68010000      -2.71730000      -2.12180000
H        1.00860000      -2.49690000      -1.31320000
