20
Properties=species:S:1:pos:R:3 gdb_97948=T pbc="F F F"
O        0.32010000       0.74660000      -0.87610000
C       -0.00410000       0.11210000       0.35430000
C       -1.33980000      -0.48110000       0.37560000
C       -2.45690000      -0.93240000       0.37880000
C       -3.80500000      -1.49380000       0.36170000
N       -3.81950000      -2.88020000      -0.07030000
C       -3.46660000      -3.19170000      -1.47190000
C       -4.56500000      -4.28230000      -1.46270000
C       -5.13190000      -3.53850000      -0.22970000
H       -0.40230000       1.34700000      -1.08730000
H        0.75490000      -0.66540000       0.49610000
H        0.09640000       0.80920000       1.20200000
H       -4.23650000      -1.44610000       1.37070000
H       -4.44780000      -0.85460000      -0.27980000
H       -3.70780000      -2.37120000      -2.16830000
H       -2.42720000      -3.49240000      -1.62940000
H       -5.20630000      -4.35330000      -2.34130000
H       -4.17460000      -5.27030000      -1.21350000
H       -5.46180000      -4.12600000       0.63360000
H       -5.93640000      -2.83640000      -0.50930000
