18
Properties=species:S:1:pos:R:3 gdb_37296=T pbc="F F F"
C       -0.06270000       1.62490000       0.15830000
C        1.49570000       1.59590000       0.14110000
N        1.50090000       0.09890000       0.02290000
C       -0.00790000       0.08440000      -0.02210000
C        0.01450000      -0.65540000      -1.39890000
C        0.06550000       0.09710000      -2.75000000
O        0.68340000       1.36870000      -2.56520000
C        1.54130000       0.23320000      -2.67250000
C        1.56400000      -0.54870000      -1.32370000
H       -0.49440000       1.92170000       1.11750000
H       -0.53470000       2.19570000      -0.63820000
H        1.96850000       2.12570000      -0.68670000
H        1.96870000       1.91090000       1.07660000
H       -0.50270000      -0.50080000       0.76060000
H       -0.47710000      -1.62720000      -1.44380000
H       -0.59190000      -0.00340000      -3.60640000
H        2.29800000       0.26690000      -3.44880000
H        2.20450000      -1.43360000      -1.36410000
