22
Properties=species:S:1:pos:R:3 gdb_101793=T pbc="F F F"
C        0.15530000       1.13040000       0.51580000
C        0.03290000      -0.19210000      -0.23850000
N       -1.34370000      -0.71060000      -0.30350000
H       -2.06740000      -1.22720000       1.23590000
C       -2.22290000       0.15660000      -1.09070000
C       -1.37910000      -2.10350000      -0.79150000
C       -2.64740000      -2.85470000      -0.35830000
C       -2.86120000      -2.95590000       1.15750000
O       -2.48460000      -1.87840000       1.86070000
O       -3.35760000      -3.91950000       1.67890000
H        1.21250000       1.38250000       0.64010000
H       -0.31630000       1.96250000      -0.01370000
H       -0.29610000       1.05350000       1.50960000
H        0.45380000      -0.08600000      -1.25470000
H        0.63490000      -0.94780000       0.27600000
H       -2.27570000       1.15010000      -0.64290000
H       -1.87420000       0.25860000      -2.13270000
H       -3.23620000      -0.25020000      -1.10770000
H       -1.28000000      -2.14220000      -1.88890000
H       -0.50730000      -2.61900000      -0.37640000
H       -3.54120000      -2.38260000      -0.78420000
H       -2.62400000      -3.87370000      -0.74980000
