21
Properties=species:S:1:pos:R:3 gdb_75547=T pbc="F F F"
C       -0.09990000       1.52540000       0.00900000
C       -0.02190000       0.02210000       0.00710000
C       -0.01910000      -0.68080000      -1.13040000
C        0.08920000      -2.17950000      -1.18260000
O        0.42510000      -2.76400000       0.06110000
C       -0.30640000      -2.18880000       1.12730000
C        0.03670000      -0.72070000       1.30380000
C        1.07810000      -0.35640000       2.34720000
C       -0.37620000      -0.08190000       2.61260000
H        0.72570000       1.97790000       0.57230000
H       -0.05950000       1.91780000      -1.01020000
H       -1.02910000       1.88110000       0.47050000
H       -0.09600000      -0.17440000      -2.08990000
H       -0.85450000      -2.61070000      -1.56890000
H        0.87890000      -2.48090000      -1.88180000
H       -1.39050000      -2.29590000       0.94880000
H       -0.05310000      -2.76350000       2.02360000
H        1.55930000      -1.17310000       2.87510000
H        1.72910000       0.48780000       2.14890000
H       -0.71390000       0.94790000       2.60800000
H       -0.89580000      -0.71110000       3.32870000
