16
Properties=species:S:1:pos:R:3 gdb_16387=T pbc="F F F"
O        0.02430000       1.38220000       0.11030000
C       -0.04630000      -0.02510000       0.04030000
C       -1.46110000      -0.55530000      -0.22990000
C       -1.14840000      -2.01640000      -0.66620000
C       -0.51150000      -1.32130000      -1.91610000
C       -1.65150000      -0.24860000      -1.74320000
C        0.61530000      -0.55530000      -1.26050000
O        1.72250000      -0.28710000      -1.64960000
H        0.91340000       1.62910000      -0.17440000
H        0.40010000      -0.49280000       0.93210000
H       -2.22680000      -0.32410000       0.50860000
H       -0.50270000      -2.62830000      -0.02920000
H       -2.04980000      -2.57170000      -0.93170000
H       -0.30400000      -1.82830000      -2.85570000
H       -2.60190000      -0.61800000      -2.13320000
H       -1.46180000       0.77030000      -2.08540000
