18
Properties=species:S:1:pos:R:3 gdb_26659=T pbc="F F F"
C        0.15760000       1.47400000       0.03310000
C       -0.04770000       0.00220000       0.00730000
C       -1.15110000      -0.79720000       0.04210000
C       -2.59210000      -0.40140000       0.11260000
C       -0.66730000      -2.15780000      -0.02560000
N       -1.46620000      -3.31570000      -0.11220000
C        0.68480000      -2.06720000      -0.08690000
O        1.63720000      -3.02680000      -0.10180000
O        1.08910000      -0.76330000      -0.07190000
H        0.73450000       1.78920000       0.91110000
H        0.70090000       1.82080000      -0.85400000
H       -0.80500000       1.98910000       0.06150000
H       -3.16950000      -0.87990000      -0.68680000
H       -3.05400000      -0.70150000       1.06230000
H       -2.71940000       0.68010000       0.01830000
H       -2.14580000      -3.36510000       0.63940000
H       -0.89190000      -4.15010000      -0.07190000
H        2.16070000      -2.95240000      -0.90970000
