17
Properties=species:S:1:pos:R:3 gdb_79301=T pbc="F F F"
C       -0.03360000       1.60590000       0.01830000
C        0.08190000       0.09440000      -0.04480000
C        0.80680000      -0.62170000      -1.17850000
C        2.27810000      -0.70850000      -0.76500000
C        2.37480000      -0.05160000       0.60180000
N        1.00860000      -0.61330000       0.94850000
C        1.25570000      -1.65620000      -0.17260000
C        1.14280000      -3.06110000      -0.08800000
N        1.05360000      -4.21440000      -0.02750000
H        0.88260000       2.11840000      -0.28370000
H       -0.83360000       1.94150000      -0.64950000
H       -0.29100000       1.92130000       1.03490000
H       -0.90310000      -0.35790000       0.10490000
H        0.49710000      -0.80530000      -2.19980000
H        3.05200000      -0.95560000      -1.48040000
H        3.11930000      -0.53350000       1.23890000
H        2.46750000       1.03390000       0.68380000
