16
Properties=species:S:1:pos:R:3 gdb_33773=T pbc="F F F"
C       -0.01590000      -1.19240000      -0.03210000
C       -0.03550000       0.00910000      -0.03120000
C       -0.01670000       1.45550000       0.01700000
C       -0.24000000       2.19000000       1.38650000
C        0.62850000       3.31250000       0.77320000
C        1.35500000       2.21690000      -0.04060000
O       -0.18140000       4.10780000      -0.11700000
C       -0.91500000       3.33300000      -0.95150000
N       -0.91920000       2.06520000      -0.98000000
H       -0.01030000      -2.25420000      -0.04580000
H       -1.27010000       2.42250000       1.66080000
H        0.27910000       1.68740000       2.20350000
H        1.17750000       4.01230000       1.40000000
H        2.11880000       1.71840000       0.55750000
H        1.73710000       2.47320000      -1.02980000
H       -1.52580000       3.93030000      -1.62290000
