17
Properties=species:S:1:pos:R:3 gdb_97338=T pbc="F F F"
C        0.01490000       1.45230000      -0.15130000
N        0.05490000       0.00280000      -0.16540000
C       -1.02000000      -0.60230000       0.05000000
O       -1.00410000      -1.98080000       0.03830000
C       -2.17280000      -2.63680000       0.29410000
O       -3.22670000      -2.09700000       0.52330000
C       -1.96650000      -4.10720000       0.24550000
C       -2.60620000      -4.89600000       1.34790000
N       -3.15560000      -4.93710000       0.00100000
H        0.36200000       1.82980000      -1.11910000
H       -0.98110000       1.87290000       0.05420000
H        0.71490000       1.82270000       0.60510000
H       -2.00460000      -0.17630000       0.25260000
H       -1.03920000      -4.44540000      -0.20130000
H       -2.11430000      -5.80440000       1.68190000
H       -3.13460000      -4.33400000       2.11240000
H       -3.96040000      -4.31270000      -0.04750000
