16
Properties=species:S:1:pos:R:3 gdb_125332=T pbc="F F F"
C       -0.02160000       1.45420000       0.03670000
C        0.00020000      -0.03680000      -0.02210000
C       -0.03910000      -0.81340000      -1.11720000
N        0.00220000      -2.16330000      -0.71790000
N       -0.00700000      -3.36430000      -1.32860000
C        0.05630000      -4.17770000      -0.27460000
N        0.10510000      -3.57350000       0.95420000
C        0.06830000      -2.29710000       0.62440000
C        0.07420000      -0.92330000       1.22510000
H        0.87640000       1.84890000       0.52800000
H       -0.07620000       1.88900000      -0.96470000
H       -0.88160000       1.81990000       0.61130000
H       -0.09310000      -0.55440000      -2.16310000
H        0.06820000      -5.25030000      -0.39720000
H        0.97960000      -0.72850000       1.81210000
H       -0.77720000      -0.75750000       1.89580000
