19
Properties=species:S:1:pos:R:3 gdb_36073=T pbc="F F F"
C       -0.15740000      -1.20520000       0.30550000
C       -0.10450000      -0.02050000       0.11020000
C       -0.01190000       1.41870000      -0.13590000
C        1.39810000       1.93240000      -0.10740000
C        2.36540000       2.20960000       1.01710000
C        3.45880000       1.37040000       0.36120000
C        2.69560000       1.61010000      -0.97030000
C        2.84360000       3.13580000      -1.22400000
C        1.97730000       3.32120000       0.01960000
H       -0.21380000      -2.25070000       0.48140000
H       -0.48050000       1.64900000      -1.10310000
H       -0.60210000       1.95690000       0.61830000
H        2.13510000       2.31170000       2.07040000
H        4.49890000       1.71390000       0.41310000
H        3.39650000       0.32650000       0.67880000
H        2.76120000       0.89630000      -1.78880000
H        3.85990000       3.54740000      -1.23050000
H        2.31470000       3.45220000      -2.12760000
H        1.47370000       4.21700000       0.36220000
