19
Properties=species:S:1:pos:R:3 gdb_71632=T pbc="F F F"
C        0.06090000       1.47010000      -0.11150000
C       -0.00230000      -0.02060000       0.00210000
O        0.67500000      -0.83630000      -1.03600000
C        0.08040000      -1.81600000      -0.10660000
C        0.59010000      -0.96710000       1.08840000
C       -0.14720000      -1.09530000       2.41560000
O       -1.44290000      -1.64370000       2.24550000
C       -2.13410000      -1.10900000       1.12980000
C       -1.22670000      -0.97970000      -0.08730000
H        1.09970000       1.81330000      -0.08660000
H       -0.39220000       1.80320000      -1.05030000
H       -0.47780000       1.94040000       0.71760000
H        0.22860000      -2.87320000      -0.32430000
H        1.67680000      -0.90890000       1.18350000
H        0.38060000      -1.77730000       3.08990000
H       -0.19670000      -0.11140000       2.91600000
H       -2.95880000      -1.80040000       0.92890000
H       -2.57990000      -0.12800000       1.37380000
H       -1.75920000      -0.93270000      -1.04000000
