19
Properties=species:S:1:pos:R:3 gdb_111777=T pbc="F F F"
C        0.02790000       1.61960000       0.07120000
C        0.00390000       0.08690000       0.06680000
C        0.65020000      -0.49640000      -1.18460000
C        0.73140000      -2.05760000      -1.40710000
C       -0.75690000      -2.43770000      -1.38770000
O       -1.33090000      -1.33680000      -2.14760000
C       -0.17630000      -0.56190000      -2.51100000
C        0.84150000      -1.65730000      -2.89900000
O        1.51620000      -1.95770000      -3.83500000
H        1.05290000       2.00260000       0.01870000
H       -0.52390000       2.02700000      -0.78230000
H       -0.42980000       2.01600000       0.98240000
H        0.53200000      -0.29240000       0.95060000
H       -1.03090000      -0.25950000       0.14080000
H        1.63190000      -0.04460000      -1.36500000
H        1.44730000      -2.70400000      -0.90510000
H       -0.96030000      -3.38860000      -1.89290000
H       -1.19860000      -2.46520000      -0.38620000
H       -0.46020000       0.29090000      -3.12170000
