21
Properties=species:S:1:pos:R:3 gdb_78043=T pbc="F F F"
C       -0.05830000       1.50360000       0.07970000
C       -0.00970000      -0.01830000      -0.05500000
C        0.78830000      -0.55250000      -1.25920000
C        1.86410000      -1.18450000      -0.31890000
C        1.10270000      -0.63150000       0.84420000
O        1.35480000      -0.49890000       2.01050000
C        0.96780000      -2.03390000      -1.22930000
C       -0.06740000      -2.99610000      -0.66980000
C        1.71880000      -2.60780000      -2.42290000
H        0.93290000       1.94670000      -0.06410000
H       -0.73650000       1.94100000      -0.65990000
H       -0.40830000       1.78290000       1.07720000
H       -1.01330000      -0.43760000       0.06750000
H        0.99260000       0.03190000      -2.14910000
H        2.94340000      -1.23540000      -0.40690000
H       -0.57990000      -2.61060000       0.21300000
H       -0.82610000      -3.22530000      -1.42730000
H        0.41090000      -3.93970000      -0.38570000
H        2.24570000      -3.52800000      -2.14870000
H        1.02060000      -2.85220000      -3.23130000
H        2.45540000      -1.90070000      -2.81590000
