14
Properties=species:S:1:pos:R:3 gdb_34778=T pbc="F F F"
N       -0.47910000      -1.09850000       0.19190000
C       -0.25060000       0.03320000       0.12750000
C       -0.03500000       1.45720000       0.07210000
C        0.52410000       2.21590000       1.21630000
C        1.54840000       1.38690000       1.98770000
C        2.34670000       1.33200000       0.64950000
C        2.76880000       0.06030000       0.07690000
N        3.15520000      -0.93240000      -0.37070000
N        1.28770000       2.12150000      -0.09300000
H       -0.77830000       1.97720000      -0.52520000
H        0.07530000       3.14550000       1.54760000
H        2.07740000       1.93610000       2.76560000
H        1.18740000       0.43840000       2.38860000
H        3.22390000       1.98160000       0.69680000
