18
Properties=species:S:1:pos:R:3 gdb_91590=T pbc="F F F"
O        0.05880000       1.41370000      -0.10810000
C        0.10130000       0.01880000       0.09150000
C        0.16900000      -0.56080000       1.55360000
C       -1.14760000      -1.29990000       1.28540000
C       -2.22470000      -0.28590000       0.97800000
C       -1.24090000      -0.66570000      -0.09250000
O       -1.63410000      -1.26980000      -1.28340000
C       -2.22450000      -0.44970000      -2.19010000
N       -2.57900000      -0.91320000      -3.30760000
H        0.95480000       1.76050000      -0.05180000
H        0.85670000      -0.45780000      -0.54620000
H        1.03120000      -1.21110000       1.71390000
H        0.12660000       0.19310000       2.34530000
H       -1.38080000      -2.31690000       1.57090000
H       -3.21320000      -0.70620000       0.82440000
H       -2.20660000       0.70070000       1.43240000
H       -2.33120000       0.58100000      -1.83260000
H       -3.00410000      -0.17590000      -3.86630000
