20
Properties=species:S:1:pos:R:3 gdb_118021=T pbc="F F F"
C        0.14260000       1.34880000      -0.17520000
O        0.13450000      -0.05810000      -0.07080000
C        0.56340000      -0.53460000       1.18870000
C        0.60340000      -2.05920000       1.06800000
O        1.39600000      -2.42640000      -0.04060000
C        1.22250000      -2.73960000       2.30530000
C        0.50780000      -2.39570000       3.62720000
C        1.23580000      -4.19480000       2.11250000
N        1.22700000      -5.34540000       2.00850000
H        1.15140000       1.76030000      -0.02080000
H       -0.19550000       1.60190000      -1.18240000
H       -0.53690000       1.81120000       0.55620000
H        1.56990000      -0.14910000       1.42480000
H       -0.12750000      -0.20790000       1.98000000
H       -0.43100000      -2.42080000       0.94670000
H        1.12530000      -1.84680000      -0.76370000
H        2.26900000      -2.41410000       2.35910000
H        0.61970000      -1.33510000       3.86420000
H       -0.55900000      -2.62980000       3.56730000
H        0.93370000      -2.97340000       4.45050000
