16
Properties=species:S:1:pos:R:3 gdb_55269=T pbc="F F F"
N        0.38530000       0.16070000       0.92080000
C       -0.16100000       0.19140000      -0.31880000
O        0.30170000       0.80200000      -1.26550000
C       -1.48560000      -0.58450000      -0.43220000
C       -1.63130000      -1.28540000      -1.80680000
O       -1.70120000      -2.69040000      -1.46660000
C       -1.70440000      -2.74340000      -0.11340000
N       -1.86140000      -4.00070000       0.39080000
N       -1.60890000      -1.65820000       0.55900000
H        1.27400000       0.60730000       1.07320000
H        0.00890000      -0.48580000       1.59630000
H       -2.27750000       0.16150000      -0.28690000
H       -2.55040000      -1.01970000      -2.33410000
H       -0.77280000      -1.10970000      -2.45670000
H       -1.59280000      -4.75590000      -0.21920000
H       -1.60630000      -4.10730000       1.35910000
