16
Properties=species:S:1:pos:R:3 gdb_13177=T pbc="F F F"
O       -0.30680000       1.35250000       0.08830000
C       -0.04510000      -0.04490000       0.01440000
C        0.73100000      -0.38940000      -1.18070000
C        1.41100000      -0.64470000      -2.13890000
C        0.63930000      -0.58520000       1.28020000
C        1.95550000       0.09190000       1.71910000
O        1.37220000       0.52780000       2.96000000
C        0.09720000      -0.06320000       2.62930000
H        0.51740000       1.82010000      -0.08550000
H       -1.03770000      -0.50790000      -0.05830000
H        1.99210000      -0.87620000      -2.99750000
H        0.70520000      -1.67290000       1.20780000
H        2.80890000      -0.57880000       1.87320000
H        2.28830000       0.93600000       1.09840000
H       -0.69270000       0.69090000       2.54510000
H       -0.19860000      -0.83150000       3.35350000
