18
Properties=species:S:1:pos:R:3 gdb_66330=T pbc="F F F"
C        0.02320000       1.51410000      -0.04190000
C       -0.00570000      -0.02010000       0.00430000
O        0.61940000      -0.46390000      -1.18670000
C        0.97030000      -1.84660000      -1.17610000
C        2.03220000      -2.12650000      -0.11440000
C        1.63880000      -1.47470000       1.18330000
C        0.69060000      -0.54480000       1.24790000
C       -1.42480000      -0.48220000       0.02130000
N       -2.52090000      -0.84940000       0.03400000
H        1.06410000       1.84520000      -0.03650000
H       -0.46080000       1.86570000      -0.95550000
H       -0.49570000       1.93640000       0.82190000
H        0.07590000      -2.45900000      -0.99190000
H        1.33160000      -2.06550000      -2.18330000
H        2.14470000      -3.20880000       0.02290000
H        3.01180000      -1.75320000      -0.44230000
H        2.15160000      -1.78820000       2.08860000
H        0.38040000      -0.10300000       2.18950000
