15
Properties=species:S:1:pos:R:3 gdb_69918=T pbc="F F F"
O       -0.20360000       1.35610000       0.09460000
C       -0.05490000      -0.01950000       0.01070000
C       -0.40280000      -0.81060000      -1.22070000
C       -1.25710000      -0.95980000       0.02320000
C       -0.77350000      -1.96380000       1.07340000
O        0.64170000      -2.14120000       0.74400000
C        0.82240000      -0.72810000       1.05830000
C       -0.22870000      -1.00400000       2.18500000
O       -0.40630000      -0.76480000       3.33180000
H        0.51000000       1.76940000      -0.40390000
H       -0.86920000      -0.22300000      -2.00400000
H        0.22700000      -1.62560000      -1.55430000
H       -2.27440000      -0.59140000       0.04510000
H       -1.31270000      -2.88910000       1.26290000
H        1.85330000      -0.42180000       1.22460000
