21
Properties=species:S:1:pos:R:3 gdb_119916=T pbc="F F F"
C        0.64970000       1.26370000      -0.13710000
O        0.83840000      -0.11800000      -0.31730000
C       -0.15490000      -0.69870000      -1.14400000
C        0.09430000      -2.18140000      -1.22390000
C       -0.16430000      -2.95370000      -2.50060000
O       -0.65510000      -2.22270000      -3.59000000
C        1.25470000      -2.75230000      -2.00040000
C        2.22490000      -1.86810000      -2.74710000
O        1.84140000      -3.85050000      -1.34620000
H        0.68540000       1.81230000      -1.09250000
H       -0.31580000       1.48700000       0.34530000
H        1.45600000       1.62450000       0.50640000
H       -1.15660000      -0.51190000      -0.72100000
H       -0.14380000      -0.24220000      -2.14360000
H       -0.12290000      -2.72670000      -0.31080000
H       -0.58080000      -3.95460000      -2.38540000
H       -0.28910000      -2.60290000      -4.39530000
H        1.70360000      -1.10140000      -3.32390000
H        2.90900000      -1.37760000      -2.05030000
H        2.81930000      -2.46610000      -3.45070000
H        2.24490000      -4.41340000      -2.01710000
