21
Properties=species:S:1:pos:R:3 gdb_90884=T pbc="F F F"
C        0.04590000       1.49660000       0.03040000
C       -0.00760000      -0.01700000       0.02920000
C        0.26660000      -0.74180000      -1.33580000
C       -0.95890000      -1.61710000      -1.07430000
C       -0.93530000      -2.15580000       0.34680000
C        0.39520000      -2.18230000       1.09120000
C        0.81280000      -0.68600000       1.14360000
O        2.19340000      -0.44200000       0.92560000
C       -1.38500000      -0.74070000       0.09140000
H        1.07670000       1.84070000      -0.10120000
H       -0.56270000       1.91870000      -0.77580000
H       -0.32440000       1.90360000       0.97930000
H        0.10150000      -0.06310000      -2.17690000
H        1.24170000      -1.22400000      -1.45430000
H       -1.58400000      -2.08130000      -1.82870000
H       -1.68900000      -2.90250000       0.57170000
H        0.28520000      -2.60890000       2.09350000
H        1.16190000      -2.76440000       0.56740000
H        0.49910000      -0.25360000       2.10880000
H        2.69040000      -0.86210000       1.63360000
H       -2.34740000      -0.31650000       0.34710000
