19
Properties=species:S:1:pos:R:3 gdb_98023=T pbc="F F F"
C       -0.22480000       1.39830000      -0.13860000
O       -0.22350000      -0.03020000      -0.25740000
C        0.87280000      -0.54810000      -0.84810000
O        1.79780000       0.11240000      -1.25570000
C        0.78930000      -1.98510000      -0.92500000
C        0.78400000      -3.18690000      -1.02250000
C        0.79430000      -4.64280000      -1.14010000
C        1.21590000      -5.07660000      -2.55870000
C        1.70690000      -5.26610000      -0.06310000
H        0.62440000       1.73700000       0.46040000
H       -0.16750000       1.86800000      -1.12390000
H       -1.16460000       1.65110000       0.35200000
H       -0.22950000      -5.00000000      -0.96390000
H        2.23620000      -4.74690000      -2.77490000
H        1.17970000      -6.16720000      -2.64110000
H        0.55280000      -4.65000000      -3.31560000
H        1.67220000      -6.35750000      -0.13340000
H        2.74290000      -4.94380000      -0.20300000
H        1.39080000      -4.97310000       0.94110000
