20
Properties=species:S:1:pos:R:3 gdb_78848=T pbc="F F F"
C       -0.34390000       1.49700000      -0.10010000
C        0.01270000       0.01060000      -0.01650000
C        0.97330000      -0.47680000      -1.08710000
C        1.77430000      -1.63120000      -0.55400000
C        2.41860000      -0.27590000      -0.64620000
C        2.31840000      -0.20890000       0.89190000
C        3.39780000       0.23340000       1.82810000
C        0.86590000      -0.34310000       1.18540000
N        1.69170000      -1.57410000       0.95710000
H        0.56110000       2.11260000      -0.12340000
H       -0.92290000       1.71300000      -1.00380000
H       -0.94460000       1.80950000       0.76040000
H       -0.90430000      -0.59260000      -0.02360000
H        0.73390000      -0.43380000      -2.14290000
H        1.96720000      -2.57120000      -1.05280000
H        3.22060000       0.09050000      -1.27160000
H        3.54270000       1.31900000       1.77620000
H        3.14160000      -0.02930000       2.85850000
H        4.35200000      -0.24700000       1.58500000
H        0.48920000      -0.23470000       2.19740000
