23
Properties=species:S:1:pos:R:3 gdb_74972=T pbc="F F F"
C       -0.02140000       1.50380000       0.03740000
C       -0.00130000       0.00720000      -0.02090000
C       -0.01580000      -0.74150000      -1.12890000
C        0.01050000      -2.23330000      -0.89350000
C        1.28720000      -2.57280000      -0.07790000
C        1.30600000      -1.71150000       1.21510000
C        0.03900000      -0.81580000       1.25250000
C       -1.20280000      -1.74670000       1.27160000
C       -1.21800000      -2.60810000      -0.02130000
H        0.86270000       1.89500000       0.55810000
H       -0.04880000       1.94630000      -0.96280000
H       -0.89360000       1.86990000       0.59500000
H       -0.04430000      -0.32480000      -2.13150000
H       -0.00270000      -2.79580000      -1.83070000
H        1.29290000      -3.64180000       0.16370000
H        2.17470000      -2.37910000      -0.68700000
H        1.32590000      -2.34590000       2.10840000
H        2.20160000      -1.08430000       1.25260000
H        0.05010000      -0.18000000       2.14310000
H       -1.16490000      -2.38080000       2.16460000
H       -2.11310000      -1.14480000       1.34960000
H       -2.13710000      -2.44020000      -0.58970000
H       -1.18240000      -3.67670000       0.21970000
