20
Properties=species:S:1:pos:R:3 gdb_30692=T pbc="F F F"
C       -0.01240000       1.54970000      -0.14670000
C        0.02940000       0.01910000      -0.01530000
N        0.67130000      -0.68440000      -1.11610000
C        2.11800000      -0.61040000      -1.18260000
C       -0.03130000      -0.78520000      -2.31110000
C       -1.35940000      -0.53110000      -2.54040000
O       -1.68330000      -0.82190000      -3.84090000
C       -0.55320000      -1.24650000      -4.44170000
C        0.49180000      -1.24510000      -3.57460000
H        0.99710000       1.97240000      -0.16780000
H       -0.52550000       1.85090000      -1.06410000
H       -0.54240000       1.99150000       0.70340000
H        0.55690000      -0.25700000       0.90510000
H       -0.98830000      -0.37580000       0.08530000
H        2.51860000      -1.46790000      -1.73150000
H        2.49870000       0.30650000      -1.66200000
H        2.52080000      -0.65500000      -0.16680000
H       -2.16680000      -0.16780000      -1.93080000
H       -0.64160000      -1.51300000      -5.48240000
H        1.50510000      -1.53430000      -3.79970000
