18
Properties=species:S:1:pos:R:3 gdb_34250=T pbc="F F F"
C        0.04820000      -1.19340000      -0.03370000
C        0.02180000       0.00930000      -0.03500000
C       -0.06290000       1.43280000      -0.01770000
C       -1.28500000       2.24690000       0.45330000
C       -0.77150000       3.44440000      -0.40640000
C        0.10260000       4.36460000       0.45020000
C        1.19750000       3.38410000       0.94720000
N        1.18830000       2.23000000       0.01590000
C        0.25110000       2.47380000      -1.06320000
H        0.08740000      -2.25430000      -0.03530000
H       -2.20300000       1.81340000       0.05150000
H       -1.40460000       2.40760000       1.53020000
H       -1.50790000       3.93990000      -1.03730000
H        0.53700000       5.16820000      -0.15460000
H       -0.45460000       4.82500000       1.27180000
H        2.19560000       3.82960000       0.92450000
H        1.01720000       3.03370000       1.96750000
H        0.54690000       2.37180000      -2.10040000
