23
Properties=species:S:1:pos:R:3 gdb_113545=T pbc="F F F"
C        0.32500000       1.45200000       0.33810000
C       -0.23100000       0.14640000      -0.24050000
C        0.62330000      -0.42050000      -1.35650000
C        1.89220000      -1.20550000      -1.02810000
C        0.69350000      -1.89910000      -1.58390000
O       -0.06910000      -2.81350000      -0.79010000
C       -0.39180000      -3.59960000      -1.95950000
C        0.49880000      -2.71560000      -2.86450000
C       -0.15560000      -2.04060000      -4.06080000
H        1.32860000       1.30310000       0.74990000
H        0.39640000       2.22900000      -0.43130000
H       -0.31510000       1.83470000       1.13950000
H       -0.32670000      -0.60650000       0.54930000
H       -1.24800000       0.31520000      -0.61800000
H        0.67600000       0.19800000      -2.25140000
H        2.76930000      -1.08300000      -1.65640000
H        2.10780000      -1.38160000       0.02180000
H       -0.08780000      -4.64550000      -1.84140000
H       -1.46380000      -3.55880000      -2.19340000
H        1.41590000      -3.22860000      -3.17020000
H       -1.07430000      -1.52280000      -3.76670000
H        0.51380000      -1.30380000      -4.51790000
H       -0.41170000      -2.77490000      -4.83210000
