18
Properties=species:S:1:pos:R:3 gdb_110573=T pbc="F F F"
O       -0.06380000       1.44180000      -0.32590000
C        0.01990000       0.08410000       0.09430000
C       -1.38560000      -0.47970000       0.06470000
C       -1.99620000      -0.87100000      -1.28910000
N       -1.14520000      -2.16320000      -1.36840000
C       -2.39160000      -2.99420000      -1.65160000
C       -2.92400000      -1.96710000      -0.65500000
O       -4.15960000      -1.83580000      -0.04970000
C       -1.57980000      -2.00300000       0.11430000
H        0.82900000       1.79560000      -0.37160000
H        0.66810000      -0.50510000      -0.56830000
H        0.42400000       0.00940000       1.11750000
H       -2.05600000       0.08900000       0.71490000
H       -2.16730000      -0.26990000      -2.18350000
H       -2.72470000      -2.93510000      -2.69340000
H       -2.30530000      -4.03600000      -1.32660000
H       -4.81610000      -1.63490000      -0.72610000
H       -1.26290000      -2.73450000       0.86010000
