15
Properties=species:S:1:pos:R:3 gdb_12464=T pbc="F F F"
N        0.01470000       0.94640000       1.08280000
C        0.07390000       0.12840000       0.10880000
O        1.28620000      -0.31880000      -0.33750000
C        1.39700000      -0.99890000      -1.57550000
O        0.81190000      -2.25960000      -1.55660000
C       -0.52990000      -2.28970000      -2.00080000
C       -1.45650000      -1.31080000      -1.35230000
C       -1.19240000      -0.32030000      -0.49470000
H        0.95970000       1.17010000       1.40190000
H        0.98660000      -0.37930000      -2.38630000
H        2.47140000      -1.13560000      -1.71090000
H       -0.57380000      -2.14580000      -3.09580000
H       -0.88370000      -3.31040000      -1.81220000
H       -2.49500000      -1.44630000      -1.65050000
H       -2.02130000       0.27070000      -0.12100000
