18
Properties=species:S:1:pos:R:3 gdb_26500=T pbc="F F F"
C       -0.31800000       1.26930000      -0.84660000
C       -0.03700000       0.00350000      -0.06240000
C        1.10740000      -0.85770000      -0.48730000
N        1.18350000      -0.08180000       0.76370000
C       -1.22580000      -0.62890000       0.56580000
C       -1.30940000      -1.22500000       1.79830000
N       -2.61150000      -1.66330000       1.90190000
C       -3.24990000      -1.31420000       0.75030000
N       -2.44550000      -0.68960000      -0.07780000
H        0.58810000       1.63140000      -1.34350000
H       -1.08410000       1.08330000      -1.60350000
H       -0.69180000       2.06000000      -0.18670000
H        1.04930000      -1.93370000      -0.35200000
H        1.69910000      -0.53430000      -1.34050000
H        1.75000000       0.75060000       0.61880000
H       -0.58150000      -1.36270000       2.57810000
H       -3.01560000      -2.14120000       2.68950000
H       -4.29190000      -1.53820000       0.57610000
