17
Properties=species:S:1:pos:R:3 gdb_10774=T pbc="F F F"
C       -0.02770000       1.60930000       0.01030000
C       -0.01500000       0.08940000      -0.00700000
C        0.66490000      -0.59290000      -1.24270000
O        1.13130000       0.27940000      -2.24040000
C        1.72430000      -1.09280000      -0.23330000
O        2.77120000      -1.68850000      -0.31330000
N        1.03520000      -0.54750000       0.81290000
C        1.29640000      -0.54420000       2.22940000
H        0.94920000       2.00860000      -0.27050000
H       -0.76580000       1.98570000      -0.70410000
H       -0.29650000       1.98670000       1.00230000
H       -1.01210000      -0.31120000       0.21530000
H        0.05900000      -1.40470000      -1.66730000
H        2.00730000      -0.02810000      -2.49990000
H        2.21470000      -1.11140000       2.39920000
H        1.43640000       0.47370000       2.61170000
H        0.47920000      -1.01600000       2.78860000
