17
Properties=species:S:1:pos:R:3 gdb_67863=T pbc="F F F"
C       -0.10600000       1.51840000       0.07540000
C        0.00550000       0.00350000      -0.01390000
C       -1.29150000      -0.75750000      -0.15530000
C       -1.37700000      -1.78740000       0.68760000
C       -0.16470000      -1.91620000       1.58110000
C        0.77570000      -0.83330000       1.04860000
O        1.67680000      -1.33410000       0.00090000
C        1.08880000      -0.55110000      -0.96250000
O        1.41180000      -0.42900000      -2.09950000
H        0.86900000       1.98050000       0.25730000
H       -0.49610000       1.92320000      -0.86350000
H       -0.78590000       1.81210000       0.88080000
H       -2.03640000      -0.47940000      -0.89190000
H       -2.21290000      -2.47590000       0.74080000
H       -0.41420000      -1.75580000       2.63750000
H        0.31280000      -2.90110000       1.51470000
H        1.35510000      -0.29720000       1.80120000
