23
Properties=species:S:1:pos:R:3 gdb_85916=T pbc="F F F"
C        0.29440000       1.57410000      -0.13590000
C        0.00630000       0.08840000       0.08910000
O        0.45920000      -0.66530000      -1.03510000
C        1.31690000      -1.75020000      -0.62630000
C        0.63450000      -3.08110000      -0.98160000
C        2.65520000      -1.61290000      -1.36550000
C        1.44460000      -1.55210000       0.86450000
C        0.70890000      -0.52610000       1.28100000
C        0.52510000      -0.01070000       2.67230000
H        1.37260000       1.75430000      -0.18490000
H       -0.15370000       1.89900000      -1.07890000
H       -0.12900000       2.18240000       0.67030000
H       -1.08700000      -0.03760000       0.19120000
H        0.46720000      -3.14110000      -2.06140000
H        1.25400000      -3.93320000      -0.68190000
H       -0.33150000      -3.16220000      -0.47600000
H        3.12960000      -0.65920000      -1.12060000
H        3.33900000      -2.42310000      -1.09080000
H        2.49320000      -1.65280000      -2.44710000
H        2.05550000      -2.19640000       1.48650000
H        1.07540000      -0.61460000       3.39830000
H        0.86830000       1.02680000       2.76510000
H       -0.53430000      -0.01590000       2.95900000
