19
Properties=species:S:1:pos:R:3 gdb_62237=T pbc="F F F"
C       -0.07130000       1.54380000      -0.06870000
C       -0.01590000       0.00980000       0.00030000
O        0.72650000      -0.44210000       1.13300000
C        2.12520000      -0.46410000       0.94250000
C        2.75770000      -0.99660000       2.22860000
C        4.22800000      -1.30090000       2.05270000
O        5.11260000      -0.84500000       2.72910000
C       -1.35800000      -0.56580000       0.08610000
C       -2.47200000      -1.01190000       0.13550000
H        0.93390000       1.96380000      -0.16300000
H       -0.65890000       1.86270000      -0.93380000
H       -0.53710000       1.93810000       0.83740000
H        0.46400000      -0.37200000      -0.91640000
H        2.38520000      -1.11560000       0.09010000
H        2.51990000       0.53860000       0.71830000
H        2.62750000      -0.29410000       3.05450000
H        2.24630000      -1.93500000       2.48410000
H        4.45290000      -2.01130000       1.22190000
H       -3.45270000      -1.41680000       0.18310000
