23
Properties=species:S:1:pos:R:3 gdb_96186=T pbc="F F F"
O        0.01230000       1.43030000      -0.13690000
C        0.03590000       0.01190000      -0.00750000
C        0.86160000      -0.45340000       1.19790000
C        0.71360000      -1.96630000       1.41190000
C       -0.74630000      -2.30810000       1.73800000
C       -1.72090000      -1.87400000       0.62840000
C       -3.05080000      -1.28230000       1.18220000
C       -2.42360000       0.13580000       1.06820000
C       -1.41260000      -0.45630000       0.04850000
H        0.92360000       1.73980000      -0.16390000
H        0.49310000      -0.43840000      -0.90740000
H        1.91420000      -0.18390000       1.03930000
H        0.52880000       0.08520000       2.09440000
H        1.03490000      -2.50110000       0.50700000
H        1.37100000      -2.30220000       2.22120000
H       -0.86260000      -3.38120000       1.92750000
H       -1.00840000      -1.80470000       2.67790000
H       -1.81490000      -2.67080000      -0.11580000
H       -3.87950000      -1.41240000       0.48030000
H       -3.37340000      -1.62500000       2.16940000
H       -3.05950000       0.95210000       0.72110000
H       -1.94280000       0.45000000       1.99830000
H       -1.84480000      -0.36990000      -0.95380000
