15
Properties=species:S:1:pos:R:3 gdb_29676=T pbc="F F F"
C       -0.20800000       1.41790000      -0.01470000
N       -0.03220000      -0.03550000      -0.00480000
C        0.01600000      -0.65980000      -1.24010000
N       -0.08560000      -0.01450000      -2.32330000
O        0.18120000      -2.03330000      -1.24080000
C        0.29020000      -2.71870000      -0.08010000
C        0.24820000      -2.14390000       1.12180000
C        0.07600000      -0.69700000       1.23200000
O        0.02710000      -0.09470000       2.28500000
H        0.61550000       1.88800000      -0.55640000
H       -1.13970000       1.67560000      -0.52270000
H       -0.22740000       1.74450000       1.02240000
H       -0.02740000      -0.64490000      -3.11950000
H        0.41390000      -3.77910000      -0.26420000
H        0.33790000      -2.71600000       2.03330000
