19
Properties=species:S:1:pos:R:3 gdb_59406=T pbc="F F F"
C        0.23130000       1.43490000       0.21120000
C       -0.27950000       0.01370000      -0.02330000
O       -1.69930000      -0.04680000      -0.10130000
C        0.33070000      -0.57680000      -1.28160000
O        1.70980000      -0.93550000      -1.25100000
C        0.73900000      -1.99170000      -1.44910000
C        0.63740000      -3.02410000      -0.34570000
C        0.71200000      -2.54020000      -2.78820000
C        0.67880000      -3.02480000      -3.88770000
H        1.31970000       1.43830000       0.32030000
H       -0.02320000       2.08440000      -0.63610000
H       -0.21910000       1.85460000       1.11450000
H       -0.01480000      -0.60630000       0.83720000
H       -1.98800000       0.59090000      -0.76380000
H        0.03160000      -0.05270000      -2.19470000
H        0.73350000      -2.56310000       0.63790000
H       -0.32240000      -3.54570000      -0.40310000
H        1.43500000      -3.76390000      -0.45810000
H        0.65290000      -3.44430000      -4.86300000
