15
Properties=species:S:1:pos:R:3 gdb_45117=T pbc="F F F"
N       -0.08470000       1.18310000       0.76480000
C       -0.00020000       0.14580000       0.05330000
O       -1.08770000      -0.23440000      -0.66990000
C       -1.15050000      -1.51290000      -1.24040000
C       -0.55870000      -1.76380000      -2.60300000
C        0.08320000      -2.34800000      -1.35380000
N        1.27440000      -1.76650000      -0.82510000
C        1.31160000      -0.63040000      -0.08060000
O        2.32420000      -0.20500000       0.44000000
H        0.83480000       1.34320000       1.18280000
H       -2.08420000      -2.00020000      -0.98140000
H       -1.08630000      -2.42600000      -3.27990000
H       -0.03750000      -0.93380000      -3.06660000
H       -0.00730000      -3.41470000      -1.17220000
H        2.16420000      -2.22080000      -0.97640000
