16
Properties=species:S:1:pos:R:3 gdb_8257=T pbc="F F F"
O       -0.16950000      -0.00110000      -0.05940000
C        0.01680000       1.18720000      -0.01840000
C        1.36110000       1.85760000      -0.20660000
C        1.34960000       2.86230000      -1.36200000
C        0.50400000       4.16880000      -1.19210000
C        1.74030000       4.96300000      -1.64760000
O        1.91760000       6.09220000      -1.99590000
C        2.64030000       3.71870000      -1.56300000
H       -0.82960000       1.89140000       0.15960000
H        1.60620000       2.38830000       0.72580000
H        2.11440000       1.08000000      -0.36470000
H        1.08240000       2.35090000      -2.29100000
H       -0.39700000       4.28740000      -1.79860000
H        0.25070000       4.39210000      -0.14900000
H        3.28180000       3.74750000      -0.67460000
H        3.26560000       3.51100000      -2.43470000
