20
Properties=species:S:1:pos:R:3 gdb_13409=T pbc="F F F"
C        0.41640000       1.38670000       0.05080000
C        0.07530000      -0.09190000      -0.01670000
O        0.70950000      -0.64510000      -1.16300000
C        0.48000000      -2.02100000      -1.33320000
C        1.16200000      -2.45170000      -2.64960000
C        2.29300000      -3.40150000      -2.19540000
C        2.40360000      -3.08790000      -0.69860000
O        1.06500000      -2.79260000      -0.30180000
H        1.49770000       1.52770000       0.13700000
H        0.07550000       1.90430000      -0.85060000
H       -0.06320000       1.84850000       0.91920000
H        0.41280000      -0.61550000       0.88680000
H       -1.01540000      -0.23660000      -0.09170000
H       -0.59920000      -2.22550000      -1.28770000
H        0.45540000      -2.93970000      -3.32370000
H        1.54590000      -1.55930000      -3.14750000
H        2.00160000      -4.44640000      -2.33590000
H        3.22990000      -3.23710000      -2.73290000
H        2.75520000      -3.92350000      -0.08900000
H        3.05770000      -2.22210000      -0.52190000
