12
Properties=species:S:1:pos:R:3 gdb_132845=T pbc="F F F"
F        0.25090000       0.18770000      -0.51410000
C        0.11590000       1.46320000      -0.22500000
N       -1.10750000       1.94160000      -0.24650000
C       -1.23970000       3.23710000       0.04770000
C       -0.14130000       4.03660000       0.36000000
N        1.09210000       3.53780000       0.37780000
C        1.24590000       2.24260000       0.08600000
C        2.64840000       1.73620000       0.12070000
O        2.99020000       0.60470000      -0.11120000
H       -2.24700000       3.64390000       0.03310000
H       -0.26070000       5.08910000       0.59770000
H        3.36390000       2.54060000       0.39180000
