21
Properties=species:S:1:pos:R:3 gdb_55377=T pbc="F F F"
C       -0.00860000       1.54410000      -0.14850000
C        0.07170000       0.04330000       0.05990000
O        1.13000000      -0.52190000       0.21150000
C       -1.26050000      -0.72210000       0.07290000
C       -1.14820000      -2.13380000      -0.55430000
C       -2.01780000      -3.06130000       0.32800000
C       -2.14800000      -2.28050000       1.60780000
C       -1.74900000      -1.01260000       1.49580000
C       -1.80130000       0.04240000       2.55700000
H        0.97720000       1.99550000      -0.03010000
H       -0.38730000       1.75120000      -1.15690000
H       -0.71840000       1.99870000       0.55100000
H       -2.01080000      -0.10050000      -0.43820000
H       -1.44040000      -2.14570000      -1.60730000
H       -0.10060000      -2.43800000      -0.49030000
H       -3.00670000      -3.24480000      -0.11620000
H       -1.56040000      -4.04700000       0.47070000
H       -2.56760000      -2.70480000       2.51480000
H       -2.21960000      -0.35360000       3.48610000
H       -0.80450000       0.44210000       2.78180000
H       -2.42090000       0.89430000       2.24640000
