21
Properties=species:S:1:pos:R:3 gdb_62862=T pbc="F F F"
C       -0.09910000       1.52430000       0.04990000
C       -0.05370000      -0.01350000       0.00440000
C       -1.47150000      -0.51730000      -0.33550000
C        1.24760000      -0.50670000      -0.71630000
O        1.99260000      -0.03750000       0.46780000
C        0.81740000      -0.57550000       1.17980000
C        1.04440000      -2.08490000       0.96070000
C        0.25200000      -2.89920000      -0.03100000
C        1.38160000      -2.03100000      -0.52540000
H        0.87180000       1.95700000       0.28580000
H       -0.43530000       1.91660000      -0.91690000
H       -0.82520000       1.85430000       0.80190000
H       -1.49950000      -1.08370000      -1.27030000
H       -1.89080000      -1.14640000       0.45430000
H       -2.15120000       0.33010000      -0.45890000
H        1.59870000      -0.07100000      -1.65330000
H        0.72350000      -0.21100000       2.20410000
H        1.68540000      -2.59110000       1.67280000
H        0.48780000      -3.96070000      -0.01600000
H       -0.78210000      -2.70860000      -0.25870000
H        2.27480000      -2.49680000      -0.92480000
