15
Properties=species:S:1:pos:R:3 gdb_66879=T pbc="F F F"
O       -0.07710000       1.43820000       0.08740000
C       -0.02930000       0.06740000       0.08250000
C       -0.28220000      -0.78290000      -1.21540000
N        0.70500000      -1.82310000      -1.30720000
C        0.70890000      -2.30510000      -0.11970000
C        1.80530000      -1.89240000       0.83480000
C        0.64030000      -0.85360000       1.16150000
N       -0.40610000      -1.89990000       0.79980000
C       -1.17300000      -0.91870000      -0.00480000
H        0.62890000       1.77660000      -0.47550000
H       -0.60170000      -0.24410000      -2.09910000
H        1.97740000      -2.51730000       1.71310000
H        2.72830000      -1.55810000       0.36800000
H        0.59030000      -0.46550000       2.18040000
H       -2.25010000      -0.83800000       0.04550000
