20
Properties=species:S:1:pos:R:3 gdb_48364=T pbc="F F F"
O       -0.45690000       0.51730000       0.97330000
C       -0.20280000       1.49040000       0.30170000
C        1.18640000       1.90100000      -0.06940000
C        2.11970000       1.99720000       1.10760000
N        2.22570000       0.88790000       0.17010000
C        1.32900000       2.78840000      -1.28220000
C        2.73680000       3.29370000      -1.70240000
C        2.33410000       3.06840000      -3.18500000
C        1.19220000       2.14040000      -2.69390000
H       -1.01080000       2.14840000      -0.08480000
H        2.92510000       2.72500000       1.06280000
H        1.70650000       1.80940000       2.09460000
H        1.76370000       0.07180000       0.57320000
H        0.63520000       3.63270000      -1.18500000
H        3.02640000       4.30170000      -1.39570000
H        3.50630000       2.58400000      -1.38790000
H        1.94600000       3.98200000      -3.64450000
H        3.08480000       2.63680000      -3.85020000
H        1.50980000       1.09420000      -2.66630000
H        0.22320000       2.20590000      -3.19490000
