16
Properties=species:S:1:pos:R:3 gdb_9057=T pbc="F F F"
O       -0.08230000       1.42730000      -0.00300000
C        0.01940000       0.00430000       0.01640000
C        0.69100000      -0.54130000      -1.25810000
C       -0.05310000      -0.09240000      -2.53010000
C        0.59090000      -0.55880000      -3.75070000
C        1.14280000      -0.95470000      -4.74250000
C        0.70780000      -0.47200000       1.21870000
C        1.31340000      -0.83950000       2.19000000
H        0.79270000       1.78230000       0.19090000
H       -1.02140000      -0.34420000       0.04050000
H        1.72950000      -0.19320000      -1.29230000
H        0.72520000      -1.63420000      -1.20550000
H       -1.08720000      -0.46100000      -2.49690000
H       -0.12090000       1.00090000      -2.53210000
H        1.61950000      -1.29850000      -5.62660000
H        1.83060000      -1.16920000       3.05730000
