23
Properties=species:S:1:pos:R:3 gdb_104880=T pbc="F F F"
C        0.06290000       1.52070000       0.24400000
C       -0.00290000       0.01430000      -0.01920000
C        0.65780000      -0.45480000      -1.32910000
C        0.57860000      -1.98960000      -1.43620000
C        1.45810000      -2.62050000      -2.51910000
C        0.09370000       0.27400000      -2.57660000
O        1.01620000       1.32610000      -2.81740000
C        2.25970000       0.79540000      -2.43890000
O        2.03790000      -0.02870000      -1.31520000
H        1.10200000       1.85440000       0.29990000
H       -0.43120000       2.10260000      -0.53940000
H       -0.42310000       1.76110000       1.19450000
H        0.48840000      -0.51490000       0.80600000
H       -1.04690000      -0.32570000      -0.02470000
H        0.86100000      -2.41000000      -0.46390000
H       -0.47270000      -2.26560000      -1.59240000
H        1.38210000      -3.71140000      -2.48240000
H        1.17080000      -2.30910000      -3.52850000
H        2.50530000      -2.34710000      -2.36640000
H        0.03540000      -0.39900000      -3.44390000
H       -0.89170000       0.71330000      -2.40840000
H        2.70090000       0.20570000      -3.26350000
H        2.92880000       1.61860000      -2.16810000
