19
Properties=species:S:1:pos:R:3 gdb_107251=T pbc="F F F"
C        0.16290000       1.55210000       0.03290000
C       -0.05180000       0.03260000      -0.02470000
C       -1.49470000      -0.36560000       0.01780000
O       -1.91050000      -1.59260000      -0.60820000
C       -2.57330000      -0.36480000      -0.96880000
C       -3.63920000      -0.01060000       0.11310000
C       -3.65210000      -1.04420000       1.22480000
C       -2.54510000      -0.02870000       1.15610000
O       -2.30810000       0.92220000       2.13350000
H        1.23070000       1.78990000       0.02250000
H       -0.30040000       2.04370000      -0.82850000
H       -0.27900000       1.97550000       0.93770000
H        0.37620000      -0.38220000      -0.94390000
H        0.47630000      -0.44970000       0.80910000
H       -2.59340000      -0.10140000      -2.01990000
H       -4.43140000       0.71170000      -0.02800000
H       -4.38040000      -0.82870000       2.00100000
H       -3.48060000      -2.09150000       1.01100000
H       -1.98070000       0.47080000       2.91970000
