14
Properties=species:S:1:pos:R:3 gdb_21523=T pbc="F F F"
N       -0.41110000       1.03260000      -0.81360000
C       -0.23020000      -0.19130000      -0.23400000
C       -1.12440000      -1.10110000       0.28160000
C       -2.59580000      -0.90110000       0.47420000
O       -3.16430000      -0.06320000      -0.53590000
C       -0.28350000      -2.19340000       0.61300000
N        0.98230000      -1.98410000       0.34920000
O        1.01270000      -0.68250000      -0.21070000
H        0.35520000       1.68370000      -0.73810000
H       -1.33610000       1.41520000      -0.68310000
H       -3.10930000      -1.87250000       0.52440000
H       -2.81610000      -0.37970000       1.41400000
H       -3.01410000      -0.49590000      -1.38410000
H       -0.56660000      -3.14060000       1.05410000
