17
Properties=species:S:1:pos:R:3 gdb_31347=T pbc="F F F"
C       -0.01120000       1.56750000       0.19060000
C       -0.01870000       0.05170000      -0.07220000
C       -1.40020000      -0.52400000      -0.14020000
C       -1.99030000      -1.07860000      -1.21690000
C       -3.35860000      -1.60280000      -1.17920000
O       -3.91870000      -2.11070000      -2.14030000
C       -3.98350000      -1.45010000       0.14110000
C       -3.31440000      -0.88350000       1.15500000
O       -2.04660000      -0.41810000       1.05690000
H        1.01580000       1.93780000       0.25110000
H       -0.52210000       2.10590000      -0.61320000
H       -0.51480000       1.80250000       1.13170000
H        0.49210000      -0.17490000      -1.01180000
H        0.53230000      -0.45910000       0.72740000
H       -1.44530000      -1.14600000      -2.15080000
H       -4.99690000      -1.80280000       0.28660000
H       -3.70240000      -0.73600000       2.15550000
