20
Properties=species:S:1:pos:R:3 gdb_22413=T pbc="F F F"
C        0.21320000       1.53160000      -0.31820000
C        0.14270000       0.03430000      -0.11890000
C        1.40900000      -0.78570000       0.00910000
C        0.50860000      -0.59480000       1.19500000
C        0.85270000       0.13210000       2.51680000
C        0.07520000      -0.96190000       3.22560000
C       -0.27350000      -1.69530000       1.94300000
N       -0.15270000      -1.12770000       4.45900000
O       -0.92470000      -2.28720000       4.67420000
H        1.05450000       1.96610000       0.23170000
H        0.34670000       1.78260000      -1.37620000
H       -0.70080000       2.02730000       0.02840000
H       -0.67540000      -0.45140000      -0.64760000
H        1.44500000      -1.76620000      -0.45590000
H        2.35640000      -0.25360000       0.00060000
H        1.91710000       0.17460000       2.77010000
H        0.43080000       1.13660000       2.62830000
H       -1.34690000      -1.75170000       1.73190000
H        0.14170000      -2.70680000       1.87820000
H       -1.02120000      -2.28940000       5.63240000
