15
Properties=species:S:1:pos:R:3 gdb_128670=T pbc="F F F"
C        0.02990000       1.42970000      -0.06750000
O        0.00680000       0.00590000      -0.00590000
C        0.59090000      -0.63320000      -1.03080000
N        1.16230000       0.00030000      -2.05140000
N        1.61620000      -0.99660000      -2.84050000
C        1.34620000      -2.23770000      -2.34520000
C        0.67010000      -2.03680000      -1.15100000
C        1.73400000      -3.41690000      -3.01500000
C        2.07110000      -4.41540000      -3.59750000
H        1.05830000       1.80500000      -0.08710000
H       -0.48970000       1.79230000      -0.96060000
H       -0.48060000       1.77590000       0.83210000
H        2.09730000      -0.77560000      -3.69490000
H        0.29510000      -2.78640000      -0.47650000
H        2.36530000      -5.30010000      -4.10580000
