17
Properties=species:S:1:pos:R:3 gdb_91615=T pbc="F F F"
O        0.14010000       1.38790000      -0.16020000
C        0.04360000      -0.00470000       0.00580000
C        0.63890000      -0.57720000       1.33970000
C       -0.54040000      -1.38640000       1.90160000
C       -1.19890000      -1.96550000       0.64020000
C       -1.41790000      -0.56770000       0.03460000
C       -2.06240000       0.14500000       1.21800000
O       -2.81420000       1.07800000       1.24170000
O       -1.53400000      -0.41590000       2.34660000
H       -0.50420000       1.82600000       0.40950000
H        0.56380000      -0.43250000      -0.85570000
H        1.51080000      -1.21150000       1.15950000
H        0.93330000       0.22910000       2.01460000
H       -0.33440000      -2.05570000       2.73460000
H       -0.52750000      -2.59850000       0.05450000
H       -2.12480000      -2.50560000       0.85090000
H       -1.96990000      -0.45770000      -0.89520000
