14
Properties=species:S:1:pos:R:3 gdb_25006=T pbc="F F F"
O        0.00340000       0.04160000       0.00340000
C       -0.04270000       1.22950000       0.01080000
C       -1.28910000       2.13970000       0.03310000
N       -0.68150000       3.44220000       0.03100000
C       -1.02930000       4.77930000       0.04260000
C        0.14660000       5.49180000       0.02920000
C        1.25470000       4.57760000       0.00890000
C        0.67740000       3.34180000       0.01100000
O        1.08200000       2.02900000      -0.00150000
H       -1.90680000       1.93820000      -0.84860000
H       -1.88160000       1.92910000       0.92980000
H       -2.05870000       5.09480000       0.05900000
H        0.22240000       6.56810000       0.03340000
H        2.30540000       4.81120000      -0.00510000
