15
Properties=species:S:1:pos:R:3 gdb_51294=T pbc="F F F"
O       -0.41070000       0.03660000      -0.04930000
C       -0.11830000       1.19900000      -0.10530000
N        1.16410000       1.72900000      -0.12760000
C        2.38040000       1.05680000      -0.11300000
N        2.54000000      -0.20170000      -0.24560000
C        3.97240000      -0.50730000      -0.10640000
C        4.69840000       0.82280000       0.04440000
O        4.51270000       1.68950000      -1.08050000
C        3.64970000       1.85140000       0.05700000
H       -0.86430000       2.01950000      -0.13790000
H        1.21730000       2.73570000      -0.16070000
H        4.12430000      -1.14770000       0.77070000
H        4.31720000      -1.06570000      -0.98350000
H        5.64300000       0.92510000       0.57060000
H        3.69960000       2.80710000       0.57280000
