11
Properties=species:S:1:pos:R:3 gdb_3764=T pbc="F F F"
C        0.10180000       1.41990000      -0.05890000
N        0.07070000      -0.02270000      -0.01220000
N        0.19290000      -0.79250000      -1.15180000
C        0.11700000      -1.99370000      -0.70780000
O       -0.04580000      -2.09990000       0.63060000
C       -0.07940000      -0.78430000       1.11490000
O       -0.21210000      -0.47860000       2.26580000
H        1.05490000       1.77130000      -0.46390000
H       -0.71530000       1.80250000      -0.67670000
H       -0.01500000       1.77460000       0.96610000
H        0.17000000      -2.89770000      -1.29220000
