20
Properties=species:S:1:pos:R:3 gdb_41196=T pbc="F F F"
C       -0.11260000       1.49260000      -0.31770000
C        1.45950000       1.55180000       0.01010000
C        1.18350000       0.27670000       0.86820000
C        1.28790000      -1.26760000       1.07590000
N       -0.24300000      -1.30300000       0.78830000
C       -0.97220000      -0.93660000       2.01110000
C       -0.15580000       0.03610000       2.88640000
O        0.68780000       0.86040000       2.09190000
C        0.06810000      -0.04510000      -0.05920000
H       -0.67850000       2.03190000       0.43840000
H       -0.43600000       1.78370000      -1.31890000
H        2.05760000       1.35470000      -0.88160000
H        1.83140000       2.43310000       0.53630000
H        1.81050000      -1.79220000       0.27520000
H        1.58870000      -1.67170000       2.04580000
H       -1.92580000      -0.49580000       1.70260000
H       -1.20230000      -1.84400000       2.58190000
H       -0.80080000       0.70830000       3.46170000
H        0.44990000      -0.52690000       3.61070000
H        0.44890000      -0.45870000      -0.99740000
