14
Properties=species:S:1:pos:R:3 gdb_1079=T pbc="F F F"
C       -0.00990000       1.56350000      -0.02090000
C        1.55570000       1.40660000      -0.13840000
C        1.31590000      -0.01450000       0.34800000
C        1.62030000      -1.30070000       0.73210000
C        0.35700000      -1.89350000       1.05980000
C       -0.65830000      -0.96680000       0.86890000
N       -0.02960000       0.16520000       0.43440000
H       -0.35770000       2.27960000       0.72920000
H       -0.53960000       1.73100000      -0.96310000
H        1.94560000       1.51300000      -1.15450000
H        2.12660000       2.05850000       0.52850000
H        2.58650000      -1.77740000       0.78260000
H        0.20950000      -2.90680000       1.40390000
H       -1.72450000      -1.04040000       1.00740000
