14
Properties=species:S:1:pos:R:3 gdb_21527=T pbc="F F F"
N        0.08430000       1.43980000       0.04820000
C       -0.02360000       0.04640000       0.01730000
C       -1.15000000      -0.75150000       0.05950000
C       -2.61440000      -0.48810000       0.13510000
O       -3.28470000      -1.64700000      -0.34780000
N       -0.63270000      -2.00830000       0.08810000
N        0.70170000      -2.00650000       0.05940000
N        1.07820000      -0.75300000       0.01950000
H        1.04540000       1.71260000      -0.12130000
H       -0.51970000       1.90260000      -0.62050000
H       -2.91250000      -0.26940000       1.17350000
H       -2.86420000       0.40380000      -0.46130000
H       -4.21630000      -1.57350000      -0.12090000
H       -1.15090000      -2.87220000       0.06140000
