23
Properties=species:S:1:pos:R:3 gdb_121387=T pbc="F F F"
O       -0.11460000       1.51700000       0.11850000
C        0.04110000       0.10580000       0.06430000
C       -1.34900000      -0.50770000      -0.05470000
C       -1.36740000      -2.04900000      -0.07780000
C       -2.79000000      -2.58220000       0.16970000
C       -2.88630000      -4.08800000      -0.09830000
C       -2.54400000      -4.40580000      -1.56080000
C       -1.33660000      -3.63760000      -2.03030000
C       -0.80630000      -2.61060000      -1.36620000
H        0.76000000       1.91410000       0.16120000
H        0.67000000      -0.18610000      -0.79120000
H        0.53480000      -0.27510000       0.97410000
H       -1.94070000      -0.15290000       0.79800000
H       -1.83300000      -0.11550000      -0.95740000
H       -0.72810000      -2.39390000       0.75260000
H       -3.09650000      -2.35080000       1.19610000
H       -3.48740000      -2.05110000      -0.49290000
H       -2.18400000      -4.61610000       0.55980000
H       -3.88680000      -4.45980000       0.14760000
H       -2.37170000      -5.48230000      -1.68750000
H       -3.40100000      -4.17080000      -2.21020000
H       -0.88480000      -3.95800000      -2.96690000
H        0.08090000      -2.12630000      -1.76810000
