15
Properties=species:S:1:pos:R:3 gdb_14172=T pbc="F F F"
C       -0.08430000       1.59530000       0.00660000
C        0.03310000       0.09370000       0.04780000
O       -1.10830000      -0.60560000      -0.38300000
C        1.30660000      -0.66590000      -0.24070000
O        2.54070000       0.02880000      -0.09720000
C        2.60610000       0.36820000       1.21900000
N        1.66260000       0.01830000       1.99600000
C        0.70540000      -0.67790000       1.16710000
H        0.77070000       2.08980000       0.47010000
H       -0.15610000       1.94850000      -1.02900000
H       -0.98870000       1.90400000       0.53920000
H       -1.21460000      -0.44450000      -1.32810000
H        1.34350000      -1.48200000      -0.95140000
H        3.49240000       0.92370000       1.49970000
H        0.16760000      -1.50800000       1.60850000
