17
Properties=species:S:1:pos:R:3 gdb_37817=T pbc="F F F"
C       -0.03770000       1.49030000      -0.19400000
C        1.42950000       1.88180000       0.03710000
C        2.18320000       0.92230000       0.60390000
C        1.32590000      -0.26550000       0.86350000
N        0.50790000      -0.49740000       2.11760000
C       -0.30220000      -1.13300000       1.03180000
C        0.92080000      -1.62770000       0.17300000
N        0.38860000      -0.99250000      -1.07220000
C        0.05730000      -0.00880000       0.01470000
H       -0.68940000       1.98380000       0.53640000
H       -0.40160000       1.75960000      -1.19130000
H        1.79790000       2.87140000      -0.21850000
H        3.22800000       1.03410000       0.86950000
H        0.94370000      -1.21830000       2.69860000
H       -1.25270000      -1.63990000       1.20320000
H        1.41170000      -2.60400000       0.18960000
H        1.17120000      -0.63150000      -1.62720000
