12
Properties=species:S:1:pos:R:3 gdb_133219=T pbc="F F F"
C        0.10490000       1.46990000       0.06130000
C       -0.00790000      -0.02130000       0.00170000
N       -0.06200000      -0.58140000      -1.16190000
O       -0.16550000      -1.94700000      -1.24900000
N       -0.21560000      -2.76990000      -0.15250000
C       -0.16230000      -2.22040000       1.00430000
F       -0.21220000      -3.02660000       2.03990000
C       -0.05220000      -0.78150000       1.26180000
O       -0.00260000      -0.28080000       2.36750000
H        1.01310000       1.75330000       0.60260000
H        0.12510000       1.88980000      -0.94450000
H       -0.73810000       1.88490000       0.62260000
