12
Properties=species:S:1:pos:R:3 gdb_35152=T pbc="F F F"
C       -0.06600000      -1.20330000       0.02100000
C       -0.03160000      -0.00370000       0.00370000
C        0.00090000       1.43560000      -0.03540000
O        0.50940000       2.09410000       1.14500000
C        1.31980000       2.15670000      -0.01590000
C        2.56760000       1.42640000      -0.00090000
N        3.57990000       0.86980000      -0.01710000
C       -1.11280000       2.08430000      -0.68310000
C       -2.03680000       2.62080000      -1.23050000
H       -0.08810000      -2.26570000       0.04210000
H        1.36510000       3.12800000      -0.50460000
H       -2.85960000       3.09280000      -1.70980000
