23
Properties=species:S:1:pos:R:3 gdb_60413=T pbc="F F F"
C       -0.16710000       1.66770000       0.13770000
C       -0.11240000       0.14570000       0.21130000
C        0.59870000      -0.46470000      -0.99980000
O        0.54940000      -0.17330000       1.43220000
C        0.37690000      -1.49510000       1.89050000
C        1.00490000      -1.58080000       3.27010000
C        0.23680000      -0.94920000       4.44940000
C        0.19230000      -2.38870000       5.00090000
O        0.86030000      -2.90650000       3.82860000
H        0.84580000       2.08200000       0.10970000
H       -0.69870000       1.99320000      -0.76130000
H       -0.67830000       2.07440000       1.01420000
H       -1.14180000      -0.24950000       0.25580000
H        1.62800000      -0.09600000      -1.05880000
H        0.62750000      -1.55660000      -0.94720000
H        0.07970000      -0.19140000      -1.92400000
H       -0.69280000      -1.75740000       1.95180000
H        0.86010000      -2.23450000       1.23270000
H        2.05970000      -1.28300000       3.20580000
H        0.79250000      -0.22610000       5.04690000
H       -0.73030000      -0.52210000       4.17770000
H        0.77950000      -2.56130000       5.91150000
H       -0.80170000      -2.83220000       5.13340000
