16
Properties=species:S:1:pos:R:3 gdb_128061=T pbc="F F F"
C       -0.07850000       1.39990000       0.04990000
N       -0.07370000      -0.03390000      -0.13630000
C        0.61430000      -0.61800000      -1.15250000
N        1.24170000       0.09100000      -2.02160000
C        0.55830000      -2.10660000      -1.14820000
N       -0.05580000      -2.74580000      -0.17690000
O        0.07150000      -4.09380000      -0.45750000
C        0.76420000      -4.23180000      -1.59940000
C        1.10760000      -3.01930000      -2.09640000
H        0.93200000       1.78690000       0.22860000
H       -0.46840000       1.90470000      -0.84000000
H       -0.71200000       1.64210000       0.90540000
H       -0.48840000      -0.63580000       0.55390000
H        1.69210000      -0.49790000      -2.71690000
H        0.93060000      -5.24600000      -1.92700000
H        1.66020000      -2.80630000      -2.99540000
