19
Properties=species:S:1:pos:R:3 gdb_108444=T pbc="F F F"
C       -0.11790000       1.42910000      -0.11170000
O       -0.09410000       0.00620000      -0.09040000
C        0.67820000      -0.55770000      -1.09640000
C        0.14690000      -0.50040000      -2.56920000
C        0.24860000      -2.05250000      -2.66680000
C        0.84140000      -2.12150000      -1.23770000
C        2.38860000      -1.97660000      -1.17700000
C        2.21540000      -0.45590000      -0.98770000
O        2.97030000       0.43850000      -0.72920000
H        0.88610000       1.84720000       0.01750000
H       -0.54440000       1.81010000      -1.05080000
H       -0.75570000       1.74260000       0.71730000
H       -0.88270000      -0.13590000      -2.58990000
H        0.73930000       0.08070000      -3.27960000
H       -0.72610000      -2.53610000      -2.75830000
H        0.89700000      -2.44110000      -3.45620000
H        0.39300000      -2.80610000      -0.52020000
H        2.85100000      -2.43600000      -0.29730000
H        2.95210000      -2.28620000      -2.06210000
