20
Properties=species:S:1:pos:R:3 gdb_18476=T pbc="F F F"
C       -0.27560000       1.44290000       0.17740000
C        0.21940000       0.02580000      -0.13400000
C        0.83280000      -0.64660000       1.08110000
C        0.07630000      -1.27400000       2.21840000
C       -1.16300000      -2.02650000       1.72010000
C       -0.21590000      -2.94610000       0.87100000
O       -0.39430000      -3.04070000      -0.52860000
C        0.98990000      -2.12810000       1.31260000
H        0.53720000       2.07620000       0.55140000
H       -0.68840000       1.92520000      -0.71440000
H       -1.05770000       1.42850000       0.94450000
H       -0.59270000      -0.58240000      -0.53740000
H        0.97710000       0.06520000      -0.92690000
H        1.71120000      -0.11440000       1.44800000
H        0.24640000      -0.99050000       3.24980000
H       -1.69010000      -2.57690000       2.50290000
H       -1.89040000      -1.43740000       1.15340000
H       -0.17410000      -3.94810000       1.31940000
H       -1.15300000      -3.60900000      -0.69640000
H        1.95960000      -2.55850000       1.53490000
