21
Properties=species:S:1:pos:R:3 gdb_77514=T pbc="F F F"
C       -0.16150000       1.53390000       0.09330000
C        0.02570000       0.02410000       0.03320000
C        0.82910000      -0.60770000      -1.18670000
C        0.58780000      -0.20440000      -2.62240000
C        2.13500000      -0.21470000      -0.40420000
C        1.22980000      -0.60510000       0.81620000
O        1.46320000      -0.18370000       2.12310000
C        0.99730000      -2.09630000       0.51220000
C        0.73620000      -2.09340000      -0.79660000
H        0.74880000       2.09870000      -0.12260000
H       -0.92900000       1.85200000      -0.62110000
H       -0.49830000       1.82640000       1.09320000
H       -0.92870000      -0.47340000       0.23060000
H        0.65070000       0.88110000      -2.74960000
H        1.32870000      -0.65990000      -3.28910000
H       -0.40450000      -0.52290000      -2.96220000
H        3.02350000      -0.82430000      -0.58780000
H        2.37860000       0.84940000      -0.45070000
H        2.26480000      -0.61070000       2.44340000
H        1.01760000      -2.90270000       1.23280000
H        0.48840000      -2.90820000      -1.46420000
