17
Properties=species:S:1:pos:R:3 gdb_12844=T pbc="F F F"
C       -0.08460000       1.52610000       0.07930000
C        0.03800000       0.01490000       0.01660000
C       -1.24370000      -0.82950000       0.29050000
C       -0.46730000      -1.65960000       1.36110000
C        0.77750000      -0.76800000       1.15310000
O        1.87840000      -1.42630000       0.48880000
C        1.69490000      -1.15930000      -0.83100000
N        0.74320000      -0.41200000      -1.20940000
H        0.90100000       1.99920000       0.02360000
H       -0.68200000       1.89180000      -0.76160000
H       -0.56850000       1.84240000       1.00930000
H       -2.07250000      -0.24460000       0.69800000
H       -1.59930000      -1.38630000      -0.57830000
H       -0.88620000      -1.62360000       2.36930000
H       -0.28680000      -2.70390000       1.09780000
H        1.17290000      -0.23730000       2.02070000
H        2.42250000      -1.62960000      -1.48370000
