18
Properties=species:S:1:pos:R:3 gdb_89831=T pbc="F F F"
C       -0.04480000       1.39530000       0.04600000
N       -0.04480000      -0.04730000       0.06260000
C       -1.22950000      -0.84590000      -0.15950000
C       -0.63310000      -2.24860000      -0.11910000
C       -1.11510000      -3.34260000       0.78260000
C       -1.25220000      -3.45840000      -0.72900000
O        0.77180000      -2.09600000      -0.25680000
C        1.10720000      -0.77690000      -0.10110000
O        2.24020000      -0.37730000      -0.11240000
H        0.99060000       1.72740000       0.13420000
H       -0.46820000       1.78810000      -0.88900000
H       -0.62610000       1.79670000       0.88390000
H       -1.98240000      -0.69110000       0.62260000
H       -1.69650000      -0.61570000      -1.13070000
H       -0.35750000      -3.95270000       1.26090000
H       -2.00770000      -3.16710000       1.37420000
H       -2.23770000      -3.36160000      -1.17320000
H       -0.58700000      -4.14540000      -1.23930000
