18
Properties=species:S:1:pos:R:3 gdb_90329=T pbc="F F F"
C       -0.12840000       1.56620000      -0.11260000
C        0.06300000       0.06380000      -0.03710000
O        0.87080000      -0.39870000      -1.20380000
C        2.06300000      -0.47410000      -0.53240000
N        2.87320000       0.50440000      -0.46320000
C        3.31540000       0.55190000       0.95050000
C        2.29610000      -0.32660000       1.68950000
C        0.79380000      -0.50400000       1.22630000
C        1.89210000      -1.35880000       0.69960000
H        0.84180000       2.06670000      -0.16220000
H       -0.70650000       1.83910000      -0.99930000
H       -0.66360000       1.91720000       0.77660000
H       -0.89180000      -0.46490000      -0.12340000
H        4.33490000       0.17360000       1.10850000
H        3.30730000       1.60550000       1.24970000
H        2.46640000      -0.57830000       2.73190000
H        0.14010000      -0.85040000       2.02100000
H        1.99170000      -2.43630000       0.71080000
