16
Properties=species:S:1:pos:R:3 gdb_127136=T pbc="F F F"
C       -0.08220000       1.43320000       0.00060000
N       -0.22930000      -0.01890000       0.01980000
C        0.23970000      -0.68940000       1.22410000
C       -0.08650000      -0.64490000      -1.18640000
N        0.07690000      -0.02470000      -2.32050000
O        0.06800000      -1.06280000      -3.30650000
C       -0.07100000      -2.27960000      -2.71620000
O       -0.11400000      -3.33800000      -3.27590000
N       -0.14700000      -2.00740000      -1.35340000
H        0.96840000       1.74570000      -0.07840000
H       -0.62290000       1.83600000      -0.85630000
H       -0.50650000       1.83810000       0.92260000
H       -0.12220000      -1.71950000       1.26660000
H        1.33670000      -0.70010000       1.30970000
H       -0.16890000      -0.16740000       2.09260000
H       -0.34770000      -2.71490000      -0.67020000
