25
Properties=species:S:1:pos:R:3 gdb_123260=T pbc="F F F"
C       -0.14160000       1.52210000       0.01220000
C       -0.05480000       0.00540000       0.00270000
O       -1.36450000      -0.52230000       0.01260000
C       -1.39750000      -1.93180000       0.00500000
C       -2.85200000      -2.38190000       0.01670000
C       -2.99100000      -3.89810000       0.01010000
O       -4.36300000      -4.22250000       0.02120000
C       -4.60790000      -5.61310000       0.01660000
C       -6.10970000      -5.84240000       0.02900000
H        0.86030000       1.96180000       0.00470000
H       -0.68550000       1.88070000      -0.86630000
H       -0.66770000       1.87060000       0.90560000
H        0.49060000      -0.34530000      -0.89080000
H        0.50810000      -0.35550000       0.88110000
H       -0.87850000      -2.32270000      -0.88840000
H       -0.86130000      -2.33260000       0.88380000
H       -3.34900000      -1.97680000       0.90430000
H       -3.36600000      -1.96770000      -0.85690000
H       -2.50270000      -4.32770000      -0.88290000
H       -2.48610000      -4.33690000       0.88930000
H       -4.15300000      -6.07720000      -0.87570000
H       -4.13710000      -6.08580000       0.89610000
H       -6.55840000      -5.39660000       0.92120000
H       -6.57430000      -5.38800000      -0.85070000
H       -6.33220000      -6.91370000       0.02580000
