15
Properties=species:S:1:pos:R:3 gdb_17991=T pbc="F F F"
N        0.01810000      -1.14560000      -0.02400000
C        0.02020000       0.00970000      -0.00880000
C        0.01120000       1.47170000      -0.03900000
N       -0.29950000       2.14270000       1.25130000
C        0.83610000       3.08550000       1.09450000
C        2.08910000       2.65220000       1.88980000
N        2.38540000       1.64590000       0.83190000
C        1.38330000       2.21960000      -0.07520000
H       -0.62740000       1.79630000      -0.87180000
H       -1.21740000       2.56850000       1.28450000
H        0.58770000       4.14560000       1.03240000
H        2.83350000       3.45560000       1.96860000
H        1.90480000       2.22200000       2.87860000
H        3.33380000       1.63410000       0.48170000
H        1.72220000       2.58320000      -1.04610000
