18
Properties=species:S:1:pos:R:3 gdb_69701=T pbc="F F F"
C       -0.04360000       1.51490000      -0.01040000
C        0.03810000       0.01530000       0.01460000
C       -0.85250000      -0.86080000       0.85040000
C        0.63180000      -0.95530000       1.05720000
C        1.32550000      -1.77350000      -0.06660000
C        0.70970000      -0.82150000      -1.09970000
O       -0.07020000      -1.92850000      -1.66970000
C        0.50210000      -2.83240000      -0.77750000
N        0.35300000      -4.07290000      -0.68030000
H        0.91180000       1.96830000      -0.29850000
H       -0.80340000       1.85730000      -0.72340000
H       -0.31400000       1.90810000       0.97470000
H       -1.38180000      -0.33000000       1.63580000
H       -1.41570000      -1.67780000       0.41130000
H        1.09750000      -0.73680000       2.00990000
H        2.39550000      -1.93660000       0.03560000
H        1.27340000      -0.28840000      -1.86460000
H       -0.30250000      -4.42480000      -1.38090000
