16
Properties=species:S:1:pos:R:3 gdb_133700=T pbc="F F F"
C       -0.54040000       1.30100000       0.16160000
C        0.24060000       0.01480000       0.01180000
C        0.95180000      -0.26760000      -1.33340000
C        2.23060000      -0.32290000      -0.47750000
O        1.52440000       0.06320000       0.70510000
C        2.84690000      -1.70580000      -0.32560000
F        3.44840000      -2.06910000      -1.47160000
F        3.76360000      -1.72780000       0.64610000
F        1.92200000      -2.63330000      -0.03830000
H        0.03460000       2.15340000      -0.21310000
H       -1.48170000       1.24050000      -0.39560000
H       -0.77810000       1.48210000       1.21440000
H       -0.34450000      -0.83850000       0.37600000
H        0.67780000      -1.18900000      -1.84650000
H        0.92840000       0.56650000      -2.03610000
H        3.03920000       0.37150000      -0.73250000
