16
Properties=species:S:1:pos:R:3 gdb_31937=T pbc="F F F"
C        0.01150000       1.42940000      -0.02920000
O        0.00030000       0.01110000      -0.00700000
C        0.58700000      -0.63370000      -1.02820000
C        0.68910000      -2.01090000      -1.18490000
C        1.37580000      -2.22920000      -2.39150000
C        1.68340000      -0.99820000      -2.95490000
N        1.18190000      -0.02420000      -2.08710000
C        2.36980000      -0.64710000      -4.17010000
O        2.83290000      -1.43330000      -4.97370000
H        1.03680000       1.82230000      -0.01910000
H       -0.52460000       1.82090000      -0.90390000
H       -0.50200000       1.75360000       0.87590000
H        0.30340000      -2.74100000      -0.49230000
H        1.63580000      -3.17830000      -2.83330000
H        1.25790000       0.96660000      -2.23850000
H        2.45390000       0.45640000      -4.33660000
