20
Properties=species:S:1:pos:R:3 gdb_79360=T pbc="F F F"
O       -0.15550000       1.45520000      -0.04740000
C       -0.02980000       0.04170000      -0.06530000
C       -1.39470000      -0.60950000      -0.17220000
C       -1.94060000      -0.77160000      -1.54640000
C       -1.31060000      -0.09120000      -2.75070000
C        0.20820000       0.15740000      -2.56680000
C        0.69920000      -0.55480000      -1.29750000
C        0.16470000      -1.99830000      -1.27600000
N       -1.26330000      -1.90450000      -0.88160000
H        0.70860000       1.82970000       0.15080000
H        0.45790000      -0.30440000       0.85950000
H       -2.05350000      -0.58310000       0.69040000
H       -3.01400000      -0.92910000      -1.63020000
H       -1.49460000      -0.71920000      -3.63060000
H       -1.83880000       0.84980000      -2.93570000
H        0.76640000      -0.20940000      -3.43390000
H        0.40910000       1.22780000      -2.47880000
H        1.78810000      -0.49890000      -1.20640000
H        0.26070000      -2.50640000      -2.24170000
H        0.67480000      -2.61270000      -0.52580000
