17
Properties=species:S:1:pos:R:3 gdb_75092=T pbc="F F F"
C        0.33460000       1.48600000       0.06840000
C       -0.00950000       0.02950000      -0.06240000
N       -0.13030000      -0.50610000      -1.20630000
C       -0.41680000      -1.92490000      -1.34190000
C       -0.76770000      -2.71440000      -0.08720000
O       -1.26970000      -3.81400000      -0.13790000
C       -0.51890000      -2.02880000       1.21340000
C        0.85410000      -1.55880000       1.58150000
N       -0.18770000      -0.59500000       1.21820000
H        1.23110000       1.60970000       0.68640000
H        0.50410000       1.92080000      -0.91630000
H       -0.47460000       2.01910000       0.57790000
H       -1.24070000      -2.06220000      -2.05230000
H        0.44810000      -2.40760000      -1.81930000
H       -1.17650000      -2.34790000       2.01710000
H        1.14460000      -1.57390000       2.62740000
H        1.65940000      -1.72360000       0.86980000
