18
Properties=species:S:1:pos:R:3 gdb_2684=T pbc="F F F"
C       -0.02710000       1.18310000      -0.78450000
C       -0.10850000      -0.11520000       0.00850000
O        1.00010000      -0.97260000      -0.26310000
C        0.86260000      -1.82760000      -1.30150000
N        1.84260000      -2.51060000      -1.68940000
C        1.70070000      -3.46620000      -2.77450000
C        0.34090000      -3.61000000      -3.46690000
H        0.91940000       1.69270000      -0.58470000
H       -0.09220000       0.99260000      -1.86040000
H       -0.84860000       1.85070000      -0.50500000
H       -0.06750000       0.08290000       1.08320000
H       -1.05060000      -0.64240000      -0.19650000
H       -0.15490000      -1.85610000      -1.71470000
H        2.46020000      -3.21050000      -3.52560000
H        2.00860000      -4.44460000      -2.38140000
H       -0.44140000      -3.93390000      -2.77180000
H        0.01720000      -2.67160000      -3.93030000
H        0.41160000      -4.36230000      -4.25840000
