19
Properties=species:S:1:pos:R:3 gdb_38239=T pbc="F F F"
C       -0.01040000       1.63400000       0.17220000
C        1.47610000       1.22310000       0.06600000
C        1.13520000       0.00830000       1.01140000
C        0.01820000       0.07930000      -0.04960000
O       -1.06030000      -0.74850000      -0.28890000
C       -1.70340000      -0.37140000      -1.51260000
C       -0.82780000       0.24880000      -2.58350000
C        0.45090000       0.60720000      -2.43130000
C        1.09910000       0.27030000      -1.12810000
H       -0.35090000       1.97390000       1.15320000
H       -0.41280000       2.24660000      -0.63490000
H        2.34520000       1.87200000       0.14580000
H        1.80350000      -0.85520000       0.96280000
H        0.87020000       0.26400000       2.04010000
H       -2.17300000      -1.28340000      -1.90010000
H       -2.52350000       0.33250000      -1.28830000
H       -1.34570000       0.41580000      -3.52580000
H        1.01090000       1.04540000      -3.25380000
H        1.80040000      -0.56670000      -1.23430000
