14
Properties=species:S:1:pos:R:3 gdb_61140=T pbc="F F F"
O       -0.06090000       1.45580000      -0.01530000
C       -0.00280000       0.04550000       0.01080000
C        0.66490000      -0.53990000      -1.26650000
C       -0.00560000      -0.09310000      -2.48380000
N       -0.53900000       0.24830000      -3.44960000
C        0.67210000      -0.47700000       1.20020000
C        1.26010000      -0.90510000       2.16440000
C        1.95020000      -1.39140000       3.33660000
O        2.17450000      -2.55860000       3.55260000
H        0.82830000       1.80370000       0.11900000
H       -1.04830000      -0.28350000       0.02730000
H        1.71700000      -0.23550000      -1.29910000
H        0.64780000      -1.63370000      -1.22050000
H        2.26630000      -0.59530000       4.03950000
