25
Properties=species:S:1:pos:R:3 gdb_120632=T pbc="F F F"
C        0.19970000       1.45990000       0.24110000
C       -0.00650000      -0.05630000       0.20070000
C       -1.42030000      -0.45990000      -0.24120000
C       -1.61130000      -1.96160000      -0.28080000
C       -2.01340000      -2.75160000       0.95440000
C       -2.94580000      -2.65020000      -0.23370000
C       -4.24680000      -1.88280000      -0.13760000
O       -2.99770000      -3.77330000      -1.07980000
C       -3.75400000      -4.85820000      -0.58200000
H        1.21650000       1.71720000       0.55400000
H        0.03090000       1.90940000      -0.74390000
H       -0.49450000       1.93630000       0.94290000
H        0.72590000      -0.50880000      -0.48070000
H        0.19580000      -0.48550000       1.19010000
H       -2.14860000      -0.00170000       0.43970000
H       -1.62290000      -0.03500000      -1.23430000
H       -0.90580000      -2.48110000      -0.92510000
H       -1.52270000      -3.70170000       1.13420000
H       -2.26850000      -2.19660000       1.85270000
H       -4.13590000      -0.98340000       0.47200000
H       -4.58740000      -1.58340000      -1.13450000
H       -5.03450000      -2.48980000       0.32110000
H       -3.60430000      -5.69130000      -1.27340000
H       -3.42000000      -5.16230000       0.42050000
H       -4.82950000      -4.63580000      -0.53520000
