16
Properties=species:S:1:pos:R:3 gdb_54348=T pbc="F F F"
N        0.06690000       1.23440000       0.37620000
C        0.08110000       0.02320000      -0.22610000
O        1.00570000      -0.44410000      -0.85720000
C       -1.23720000      -0.76790000      -0.03400000
C       -1.04050000      -2.07580000       0.78530000
C       -1.83360000      -1.34670000       1.88440000
O       -2.07100000      -0.20420000       1.02220000
C       -1.93800000      -0.87690000      -1.30090000
C       -2.52710000      -0.96500000      -2.34440000
H        0.87600000       1.82830000       0.30820000
H       -0.73310000       1.50460000       0.92440000
H       -1.54560000      -2.93780000       0.35200000
H       -0.00120000      -2.32280000       0.99770000
H       -2.77410000      -1.81230000       2.19390000
H       -1.25850000      -1.06600000       2.77400000
H       -3.04050000      -1.04090000      -3.27120000
