15
Properties=species:S:1:pos:R:3 gdb_1896=T pbc="F F F"
C       -0.01030000       1.44960000       0.11390000
C       -0.05190000      -0.03310000      -0.06690000
C        0.64020000      -0.95420000      -1.09700000
C        0.02520000      -1.84550000      -0.00390000
O        0.52730000      -0.89330000       1.02430000
C       -1.27920000      -1.00500000      -0.06160000
O       -2.10660000      -0.99150000       1.05090000
H        1.01300000       1.79330000       0.29110000
H       -0.39510000       1.94800000      -0.78130000
H       -0.63280000       1.74410000       0.96460000
H        0.22020000      -1.00400000      -2.10540000
H        1.72940000      -0.91150000      -1.08820000
H        0.16890000      -2.90770000       0.19370000
H       -1.89380000      -1.06230000      -0.96310000
H       -1.49920000      -0.95760000       1.80560000
