17
Properties=species:S:1:pos:R:3 gdb_102152=T pbc="F F F"
C        0.50990000       0.99830000       0.76520000
N       -0.25760000       0.22450000      -0.22010000
H       -0.82080000      -0.47700000       0.25060000
H       -1.33070000       0.85470000      -1.63350000
C        0.50360000      -0.38360000      -1.31210000
C        0.97690000      -1.83970000      -1.09970000
C        1.93180000      -1.98210000      -0.00520000
N        2.68160000      -2.07990000       0.86900000
C       -0.31860000      -0.32200000      -2.62630000
O       -1.33710000       0.53420000      -2.56670000
O       -0.03900000      -0.97090000      -3.59930000
H        1.27270000       0.41220000       1.29110000
H        1.00060000       1.83460000       0.25830000
H       -0.18310000       1.41460000       1.50090000
H        1.38570000       0.24360000      -1.48740000
H        0.11290000      -2.48660000      -0.90410000
H        1.42210000      -2.19270000      -2.03430000
