18
Properties=species:S:1:pos:R:3 gdb_52102=T pbc="F F F"
N       -0.43180000       1.08420000       0.14750000
C       -0.67700000      -0.08070000      -0.27030000
O       -0.39950000      -1.14350000       0.51870000
C       -0.74070000      -2.42850000      -0.00740000
C       -2.20200000      -2.72000000       0.07670000
C       -2.98170000      -3.06680000       1.30600000
C       -3.01680000      -3.99720000       0.10950000
C       -3.83840000      -3.34440000      -0.99620000
O       -3.06400000      -2.11550000      -0.90170000
H       -0.68650000       1.76500000      -0.56530000
H       -1.10840000      -0.35440000      -1.24090000
H       -0.40020000      -2.51490000      -1.04740000
H       -0.18580000      -3.14800000       0.59970000
H       -2.39760000      -3.42840000       2.14630000
H       -3.85030000      -2.46990000       1.56850000
H       -2.70450000      -5.03190000       0.14950000
H       -3.70470000      -3.80600000      -1.98060000
H       -4.90480000      -3.17850000      -0.80490000
