25
Properties=species:S:1:pos:R:3 gdb_58428=T pbc="F F F"
C        0.10360000       1.48130000       0.24470000
C        0.02790000      -0.05350000       0.15410000
C        0.80630000      -0.71200000       1.30560000
C       -1.43220000      -0.56960000       0.05630000
C       -2.27130000       0.03230000       1.19730000
C       -2.08700000      -0.62810000      -1.38270000
C       -1.14880000      -1.82540000      -1.72830000
C       -1.67080000      -2.09680000      -0.28680000
C       -3.07310000      -1.70650000      -0.84790000
H        1.14360000       1.81430000       0.16180000
H       -0.46250000       1.95930000      -0.56210000
H       -0.28450000       1.86000000       1.19540000
H        0.55530000      -0.32110000      -0.76430000
H        0.38500000      -0.46520000       2.28600000
H        0.81260000      -1.80260000       1.21110000
H        1.84760000      -0.37190000       1.30750000
H       -2.55960000       1.06470000       0.97430000
H       -3.18560000      -0.52220000       1.40720000
H       -1.70020000       0.05340000       2.12980000
H       -2.33290000       0.22140000      -2.02480000
H       -1.52540000      -2.50400000      -2.49800000
H       -0.08630000      -1.64350000      -1.87660000
H       -1.43670000      -2.95720000       0.34440000
H       -3.85280000      -1.39890000      -0.15430000
H       -3.47960000      -2.38670000      -1.60070000
