18
Properties=species:S:1:pos:R:3 gdb_106014=T pbc="F F F"
O        0.06290000       1.37150000       0.14450000
C        0.06940000      -0.02980000      -0.06700000
C       -1.32510000      -0.58400000      -0.12910000
C       -1.79970000      -2.03960000       0.09630000
C       -3.05010000      -1.65300000      -0.67500000
C       -2.93910000      -1.40510000       0.83460000
N       -2.33160000      -0.04110000       0.92450000
C       -3.01840000       0.73990000      -0.17780000
C       -2.47490000      -0.30390000      -1.16700000
H       -0.45070000       1.50900000       0.95100000
H        0.60240000      -0.20950000      -1.00730000
H        0.62280000      -0.55250000       0.73090000
H       -1.28270000      -2.97990000       0.23140000
H       -3.79920000      -2.28950000      -1.12520000
H       -3.61410000      -1.80510000       1.57980000
H       -4.10110000       0.84370000      -0.05930000
H       -2.54450000       1.71780000      -0.28060000
H       -2.32860000      -0.13660000      -2.23360000
