18
Properties=species:S:1:pos:R:3 gdb_35794=T pbc="F F F"
N        0.02650000      -1.16690000       0.06530000
C        0.02500000      -0.01280000       0.01260000
C        0.00230000       1.45380000       0.00080000
C       -0.80660000       1.98010000       1.21520000
N       -0.67300000       3.42750000       1.42900000
C        0.48470000       3.88620000       2.19840000
C        0.40610000       4.16200000       0.74320000
C        1.31790000       3.44330000      -0.24180000
N        1.36120000       1.99020000      -0.08190000
H       -0.50950000       1.76710000      -0.91940000
H       -1.86700000       1.75030000       1.06270000
H       -0.48880000       1.44330000       2.11620000
H        0.28740000       4.66990000       2.92510000
H        1.20050000       3.13490000       2.53190000
H        0.10860000       5.16040000       0.42530000
H        0.96950000       3.65080000      -1.26230000
H        2.33820000       3.83440000      -0.17270000
H        1.89230000       1.72520000       0.74230000
