18
Properties=species:S:1:pos:R:3 gdb_85020=T pbc="F F F"
C       -0.01910000       1.55280000       0.01120000
C       -0.00800000       0.02230000       0.01790000
N        0.74720000      -0.57450000      -1.07470000
C        1.85930000      -1.25430000      -0.65370000
O        2.72860000      -1.76340000      -1.32260000
N        1.79730000      -1.26490000       0.75380000
C        2.77490000      -1.95150000       1.56470000
C        0.71880000      -0.54560000       1.23660000
N        0.33920000      -0.33320000       2.43030000
H        1.00120000       1.94790000       0.00330000
H       -0.54770000       1.93340000      -0.86860000
H       -0.52680000       1.91260000       0.90900000
H       -1.04020000      -0.34800000       0.02410000
H        0.69160000      -0.26070000      -2.02850000
H        3.49880000      -2.40230000       0.88450000
H        3.29110000      -1.25340000       2.23300000
H        2.30550000      -2.73610000       2.16880000
H        0.95040000      -0.78380000       3.11170000
