18
Properties=species:S:1:pos:R:3 gdb_53901=T pbc="F F F"
C        0.04070000       1.41530000       0.09590000
C       -0.03460000      -0.09770000       0.09320000
O       -0.25340000      -0.74660000       1.08330000
C        0.15530000      -0.77630000      -1.29250000
C        0.79920000      -2.07520000      -1.15720000
C        1.32540000      -3.14960000      -1.04510000
C       -1.23340000      -0.85360000      -1.95260000
C       -1.60840000      -1.96240000      -2.86080000
N       -2.21110000      -1.85120000      -1.51890000
H        1.07370000       1.72690000      -0.10080000
H       -0.57730000       1.84350000      -0.70040000
H       -0.27620000       1.80210000       1.06470000
H        0.77890000      -0.12270000      -1.91730000
H        1.80270000      -4.09230000      -0.93520000
H       -1.66310000       0.12980000      -2.13480000
H       -2.28850000      -1.77300000      -3.68630000
H       -0.87260000      -2.74160000      -3.03360000
H       -1.75990000      -2.50990000      -0.88590000
