20
Properties=species:S:1:pos:R:3 gdb_56587=T pbc="F F F"
C       -0.05850000       1.57540000       0.27650000
C        0.02920000       0.05350000       0.11840000
C       -1.38480000      -0.60960000       0.04850000
N       -1.37710000      -2.06860000      -0.06450000
C       -2.20160000      -0.21530000       1.20360000
N       -2.81440000       0.10090000       2.13080000
N        0.75650000      -0.46160000      -1.05000000
C        1.01580000       0.37390000      -2.21980000
C        2.12160000      -0.03510000      -1.30890000
H        0.92890000       2.04470000       0.23220000
H       -0.68720000       2.02710000      -0.49780000
H       -0.49740000       1.82460000       1.24550000
H        0.53760000      -0.36710000       0.99550000
H       -1.87830000      -0.20940000      -0.84870000
H       -0.65990000      -2.29370000      -0.75140000
H       -1.06830000      -2.47290000       0.81610000
H        0.88140000      -0.11580000      -3.18000000
H        0.72320000       1.41990000      -2.20000000
H        2.55380000       0.74050000      -0.67950000
H        2.81400000      -0.82320000      -1.59250000
