21
Properties=species:S:1:pos:R:3 gdb_121754=T pbc="F F F"
C        0.09820000       1.53560000       0.23060000
C        0.02780000       0.03240000       0.04420000
O        0.69070000      -0.57860000       1.16970000
C        0.72500000      -1.92460000       1.17140000
O        0.24190000      -2.60920000       0.30240000
C        1.44280000      -2.44560000       2.39610000
C        1.49830000      -3.96600000       2.42740000
O        2.18360000      -4.34340000       3.60130000
C        2.29730000      -5.73920000       3.73900000
H        1.13670000       1.87630000       0.27170000
H       -0.39620000       2.03690000      -0.60680000
H       -0.39950000       1.83860000       1.15610000
H       -1.00470000      -0.32860000       0.00270000
H        0.52310000      -0.29110000      -0.87680000
H        2.45490000      -2.02690000       2.42000000
H        0.94030000      -2.06420000       3.29170000
H        0.48030000      -4.38590000       2.41260000
H        2.01130000      -4.34810000       1.53090000
H        2.83760000      -5.93390000       4.66870000
H        1.31090000      -6.22690000       3.79190000
H        2.85520000      -6.18890000       2.90230000
