15
Properties=species:S:1:pos:R:3 gdb_12174=T pbc="F F F"
C       -0.09750000       1.57360000       0.03200000
C        0.00220000       0.05650000      -0.00800000
C        0.77350000      -0.61580000      -1.20670000
N        1.75240000      -1.09410000      -0.23930000
C        1.09730000      -0.60650000       0.87210000
O        1.31480000      -0.67910000       2.04890000
C        0.00490000      -1.68370000      -1.94430000
O        0.18110000      -2.86560000      -1.79850000
H        0.87070000       2.03870000      -0.17840000
H       -0.82370000       1.94720000      -0.69650000
H       -0.41760000       1.89770000       1.02660000
H       -0.97120000      -0.41050000       0.17330000
H        1.16540000       0.11230000      -1.93030000
H        2.39590000      -1.86810000      -0.32250000
H       -0.75870000      -1.28840000      -2.65240000
