21
Properties=species:S:1:pos:R:3 gdb_70310=T pbc="F F F"
C       -0.38230000       1.47330000       0.15670000
C        0.05120000       0.03290000      -0.04000000
C       -0.66040000      -1.01750000       0.79940000
C        0.77230000      -0.63950000       1.09690000
O        1.81710000      -1.55330000       0.92160000
C        2.25950000      -1.86880000      -0.36650000
C        1.45360000      -2.77590000      -1.26320000
C        1.61110000      -1.30280000      -1.59690000
C        0.47750000      -0.29450000      -1.46990000
H        0.42550000       2.17010000      -0.09620000
H       -1.24180000       1.71240000      -0.48180000
H       -0.67870000       1.66570000       1.19270000
H       -1.43340000      -0.68610000       1.48590000
H       -0.84370000      -1.99310000       0.36390000
H        0.95880000      -0.05240000       1.99180000
H        3.33840000      -1.99080000      -0.35880000
H        1.98060000      -3.49960000      -1.87610000
H        0.49490000      -3.12050000      -0.89320000
H        2.28620000      -1.09050000      -2.42040000
H       -0.39140000      -0.60740000      -2.06380000
H        0.82850000       0.64060000      -1.92220000
