16
Properties=species:S:1:pos:R:3 gdb_74160=T pbc="F F F"
N        0.06670000       1.36840000      -0.11780000
C       -0.02020000       0.00850000      -0.03510000
C       -1.10400000      -0.79900000      -0.02970000
C       -0.65720000      -2.18680000       0.00180000
O       -1.26780000      -3.21890000       0.02050000
O        0.74190000      -2.18000000       0.01760000
C        1.18910000      -0.85260000      -0.01660000
C        2.44640000      -0.54890000      -0.78900000
C        2.46100000      -0.52010000       0.72090000
H        0.90550000       1.80940000       0.22500000
H       -0.77330000       1.89460000       0.06430000
H       -2.14690000      -0.52290000      -0.04280000
H        2.91390000      -1.39350000      -1.28110000
H        2.49100000       0.38690000      -1.33570000
H        2.53410000       0.43380000       1.23460000
H        2.93240000      -1.34760000       1.23760000
