15
Properties=species:S:1:pos:R:3 gdb_46450=T pbc="F F F"
O       -0.02020000       0.03820000       0.18020000
C       -0.00620000       1.23080000       0.02060000
C       -1.23990000       2.11240000      -0.22310000
O       -0.78360000       3.39050000      -0.64190000
C        0.62510000       3.47170000      -0.51610000
C        1.16070000       3.34290000       0.87840000
C        1.18190000       2.13090000      -0.05150000
C        1.26150000       4.28940000      -1.50310000
C        1.80340000       4.98180000      -2.32220000
H       -1.86820000       1.66860000      -1.00290000
H       -1.83900000       2.18720000       0.69480000
H        2.12710000       3.78320000       1.09190000
H        0.44730000       3.36770000       1.69510000
H        2.12970000       1.72900000      -0.38280000
H        2.27800000       5.59120000      -3.05120000
