12
Properties=species:S:1:pos:R:3 gdb_25397=T pbc="F F F"
O       -0.15250000       0.03790000      -0.00210000
C       -0.00190000       1.22750000       0.00610000
C        1.35470000       1.88990000      -0.00300000
N        2.44770000       1.21660000      -0.02050000
C        3.60770000       1.96020000      -0.02650000
C        3.62930000       3.31400000      -0.01490000
C        2.39320000       4.06650000       0.00490000
O        2.22060000       5.24770000       0.01700000
O        1.24140000       3.22700000       0.01000000
H       -0.83970000       1.95240000       0.02120000
H        4.52760000       1.38390000      -0.04140000
H        4.54940000       3.88340000      -0.01990000
