19
Properties=species:S:1:pos:R:3 gdb_105016=T pbc="F F F"
N        1.30370000      -0.20430000      -0.90360000
C        0.12430000      -0.15320000      -0.01930000
C       -1.01890000      -0.90490000      -0.57890000
N       -1.88520000      -1.50330000      -1.05690000
C        0.50400000      -0.60950000       1.39110000
C        1.56970000       0.27140000       2.03360000
O        2.85580000       0.12290000       1.47150000
C       -0.54890000      -1.20010000       2.29600000
C        0.52580000      -2.08410000       1.71390000
H        1.58110000      -1.17270000      -1.04180000
H        1.07950000       0.17590000      -1.81850000
H       -0.18570000       0.89860000       0.03650000
H        1.23100000       1.32250000       1.99650000
H        1.65970000       0.00310000       3.09150000
H        2.74200000       0.24710000       0.51720000
H       -0.49640000      -0.94360000       3.34850000
H       -1.55730000      -1.31830000       1.91550000
H        0.22270000      -2.78900000       0.94670000
H        1.32340000      -2.43620000       2.35790000
