16
Properties=species:S:1:pos:R:3 gdb_80317=T pbc="F F F"
N        0.07620000       1.48660000       0.04450000
C        0.00270000       0.05860000      -0.02040000
C       -1.31970000      -0.65790000       0.05420000
N       -2.44500000       0.14630000      -0.34000000
C       -2.28940000       0.43550000      -1.69750000
N       -1.21630000      -0.02290000      -2.25130000
C       -0.48390000      -0.72560000      -1.24840000
C       -3.27990000       1.21340000      -2.36170000
C       -4.14820000       1.85640000      -2.88950000
H        0.41550000       1.87850000      -0.82760000
H       -0.84590000       1.87920000       0.20740000
H        0.80100000      -0.46410000       0.50360000
H       -1.50380000      -1.46640000       0.75110000
H       -3.36550000      -0.04780000       0.02310000
H        0.09270000      -1.58250000      -1.57770000
H       -4.90180000       2.42740000      -3.37380000
