18
Properties=species:S:1:pos:R:3 gdb_40046=T pbc="F F F"
C        0.73890000       1.49560000      -0.06790000
O        1.49250000       0.28410000       0.10480000
C        0.08800000       0.19070000      -0.00400000
C       -0.80570000      -0.45870000       1.05320000
N       -1.35700000      -1.37740000       0.01740000
C       -2.80200000      -1.27190000      -0.24390000
C       -2.91410000      -0.32130000      -1.41560000
C       -1.71220000       0.02050000      -1.87710000
C       -0.62870000      -0.64650000      -1.07560000
H        0.71460000       2.15730000       0.79730000
H        0.86910000       1.99350000      -1.02820000
H       -0.26900000      -0.97290000       1.85720000
H       -1.55030000       0.21860000       1.49440000
H       -3.23890000      -2.25280000      -0.48230000
H       -3.32760000      -0.90960000       0.65100000
H       -3.86550000      -0.00290000      -1.82650000
H       -1.51190000       0.66340000      -2.72600000
H        0.04690000      -1.26570000      -1.68000000
