20
Properties=species:S:1:pos:R:3 gdb_26348=T pbc="F F F"
C        0.10790000       1.21960000      -0.48780000
C        0.06100000      -0.17180000       0.17580000
C        0.65600000      -0.12690000       1.58940000
C       -1.33650000      -0.73280000       0.15940000
C       -2.18990000      -0.92640000       1.20260000
O       -3.37940000      -1.42380000       0.78820000
C       -3.29260000      -1.57000000      -0.56930000
C       -2.07070000      -1.16130000      -1.01010000
N       -1.59890000      -1.07320000      -2.33130000
H        1.13800000       1.58760000      -0.54570000
H       -0.30710000       1.18840000      -1.49860000
H       -0.47910000       1.93810000       0.09420000
H        0.69750000      -0.84060000      -0.42530000
H        0.08600000       0.55330000       2.23240000
H        0.65380000      -1.11610000       2.05720000
H        1.68810000       0.23600000       1.56140000
H       -2.09560000      -0.76770000       2.26390000
H       -4.16720000      -1.96000000      -1.06230000
H       -2.15250000      -1.61930000      -2.97930000
H       -0.62910000      -1.35450000      -2.41380000
