18
Properties=species:S:1:pos:R:3 gdb_121052=T pbc="F F F"
C       -0.07430000       1.40680000      -0.25590000
C       -0.02420000      -0.09760000      -0.06520000
O       -1.36560000      -0.59400000      -0.09140000
C       -1.47760000      -1.95450000       0.13110000
C       -2.95610000      -2.34880000       0.09000000
O       -3.12840000      -2.86930000      -1.22830000
C       -1.90730000      -3.11320000      -1.78250000
N       -1.66930000      -3.63370000      -2.90000000
O       -0.91830000      -2.72320000      -0.93630000
H        0.93780000       1.82120000      -0.23910000
H       -0.53440000       1.65630000      -1.21590000
H       -0.65740000       1.88010000       0.53920000
H        0.56100000      -0.57820000      -0.85800000
H        0.43940000      -0.35840000       0.89940000
H       -0.94550000      -2.25690000       1.04220000
H       -3.19840000      -3.12140000       0.82680000
H       -3.60170000      -1.48020000       0.22500000
H       -2.54040000      -3.89030000      -3.35850000
