19
Properties=species:S:1:pos:R:3 gdb_44633=T pbc="F F F"
O        0.24220000       0.04950000      -0.65960000
C        0.11690000       1.16950000      -0.25630000
C       -1.09700000       2.00230000       0.21490000
C       -0.13140000       3.19210000       0.48060000
C        0.56290000       3.31750000       1.87730000
C        0.25910000       2.26600000       2.97860000
C        1.40640000       1.35590000       2.43070000
C        1.75540000       2.44120000       1.37040000
C        1.08480000       2.34380000      -0.04500000
H       -1.78770000       2.18890000      -0.61490000
H       -1.67630000       1.59180000       1.04610000
H       -0.41250000       4.13590000       0.01470000
H        0.70340000       4.34640000       2.21140000
H        0.46500000       2.64720000       3.98180000
H       -0.74570000       1.83640000       2.98930000
H        2.20710000       1.17830000       3.15210000
H        1.09970000       0.38810000       2.02710000
H        2.78470000       2.80030000       1.35850000
H        1.70980000       2.62130000      -0.89560000
