19
Properties=species:S:1:pos:R:3 gdb_63093=T pbc="F F F"
C       -0.05860000       1.54120000       0.04260000
C        0.02410000       0.02710000      -0.03140000
C       -1.18040000      -0.67520000       0.57340000
C        0.67720000      -0.67650000      -1.18950000
C        1.61780000       0.12500000      -2.07500000
O        2.65770000       0.63830000      -1.22600000
C        2.60510000       0.08710000       0.02950000
O        3.47560000       0.26100000       0.83210000
C        1.34930000      -0.71150000       0.16700000
H        0.82020000       2.03930000      -0.37120000
H       -0.93870000       1.89830000      -0.50460000
H       -0.16430000       1.86530000       1.08340000
H       -2.10030000      -0.37130000       0.06120000
H       -1.09660000      -1.76340000       0.49630000
H       -1.28940000      -0.42000000       1.63310000
H        0.20490000      -1.55460000      -1.61450000
H        2.07930000      -0.50870000      -2.84010000
H        1.13790000       0.97520000      -2.57030000
H        1.38410000      -1.57440000       0.81900000
