14
Properties=species:S:1:pos:R:3 gdb_27505=T pbc="F F F"
N        0.00780000       1.35000000       0.12580000
C       -0.04210000      -0.01370000       0.02930000
N       -1.18120000      -0.62300000       0.01730000
C       -1.19380000      -2.01060000      -0.00420000
N       -2.23010000      -2.75060000      -0.00060000
N        0.05850000      -2.65880000      -0.04440000
C        1.28140000      -2.05320000      -0.02650000
O        2.35170000      -2.61600000      -0.02450000
N        1.17560000      -0.65580000      -0.01010000
H        0.79210000       1.83160000      -0.28530000
H       -0.88720000       1.79550000      -0.01030000
H       -3.05600000      -2.15550000       0.02920000
H        0.04660000      -3.66800000      -0.05730000
H        2.04750000      -0.16230000       0.10290000
