18
Properties=species:S:1:pos:R:3 gdb_46393=T pbc="F F F"
O        0.15200000       0.07350000      -0.39930000
C        0.09280000       1.26230000      -0.22310000
N       -0.92100000       2.17940000      -0.34160000
C       -0.14780000       3.32820000       0.13850000
C        1.07610000       2.36730000       0.25250000
C        1.69750000       2.15300000       1.63180000
C        2.67380000       0.99710000       1.63360000
C        4.11910000       1.20470000       1.47490000
O        3.55400000       0.91780000       2.75550000
H       -1.89750000       2.06990000      -0.57180000
H       -0.04750000       4.13920000      -0.58910000
H       -0.49570000       3.73270000       1.09490000
H        1.84710000       2.57110000      -0.49640000
H        2.21510000       3.06050000       1.96340000
H        0.90470000       1.95160000       2.36420000
H        2.25750000       0.04240000       1.31370000
H        4.73810000       0.41710000       1.04800000
H        4.50740000       2.21600000       1.35370000
