22
Properties=species:S:1:pos:R:3 gdb_36876=T pbc="F F F"
C        0.60990000       1.56140000       0.84630000
C        0.40910000       0.06630000       0.65050000
C       -0.53090000      -0.76630000       1.58110000
C       -1.75380000      -0.16930000       0.82270000
C       -0.70850000      -0.52420000      -0.27570000
C       -0.49760000      -1.86770000       0.48100000
N        1.36490000       2.11960000      -0.27540000
C        0.57740000       2.64920000      -1.38420000
C        1.28820000       3.56470000      -0.44930000
H       -0.34370000       2.09400000       0.99810000
H        1.20760000       1.72010000       1.75350000
H        1.39010000      -0.39370000       0.48860000
H       -0.42870000      -0.91060000       2.65850000
H       -2.66530000      -0.77380000       0.83070000
H       -1.99110000       0.88320000       0.98470000
H       -0.81120000      -0.39010000      -1.35360000
H        0.45700000      -2.37730000       0.32320000
H       -1.33630000      -2.56920000       0.47070000
H        0.96880000       2.46000000      -2.37980000
H       -0.50810000       2.60680000      -1.30540000
H        0.67540000       4.13210000       0.25010000
H        2.20990000       4.05610000      -0.74800000
