18
Properties=species:S:1:pos:R:3 gdb_76977=T pbc="F F F"
C       -0.35790000       1.42710000      -0.15700000
N       -0.00360000       0.02070000       0.03750000
C        1.31370000      -0.50200000      -0.35640000
C        2.42370000       0.34500000      -0.86220000
O        2.62180000       1.50980000      -0.59020000
C        0.86860000      -0.39980000       1.09980000
C        1.51620000       0.53360000       2.07440000
C        1.02910000       0.58450000       3.46190000
O        2.22270000      -0.12280000       3.13410000
H        0.47430000       2.13120000      -0.07210000
H       -0.79620000       1.52910000      -1.15390000
H       -1.12820000       1.67980000       0.57760000
H        1.27350000      -1.48400000      -0.82370000
H        3.10270000      -0.19350000      -1.55920000
H        0.58810000      -1.34560000       1.56390000
H        2.02110000       1.40280000       1.66440000
H        1.16490000       1.49530000       4.04300000
H        0.18440000      -0.03640000       3.75850000
