19
Properties=species:S:1:pos:R:3 gdb_99476=T pbc="F F F"
C        0.36120000       1.61330000      -0.35850000
C        1.05510000       0.31350000      -0.75570000
C        0.08900000      -0.79000000      -1.13880000
O       -1.11110000      -0.66720000      -1.12890000
C        0.72940000      -2.14590000      -1.57290000
O        1.75000000      -1.95740000      -2.54010000
C        1.23940000      -1.65290000      -3.82600000
C        1.29100000      -2.81700000      -0.40650000
C        1.71950000      -3.34100000       0.58620000
H       -0.25240000       1.99660000      -1.17820000
H       -0.30160000       1.45800000       0.49660000
H        1.09730000       2.37660000      -0.09220000
H        1.74660000       0.45660000      -1.59490000
H        1.68410000      -0.07600000       0.05570000
H       -0.09380000      -2.74880000      -1.98570000
H        0.58630000      -2.45570000      -4.19770000
H        0.67060000      -0.71180000      -3.83860000
H        2.10030000      -1.55470000      -4.49010000
H        2.10310000      -3.81960000       1.45360000
