25
Properties=species:S:1:pos:R:3 gdb_123155=T pbc="F F F"
C       -0.01510000       1.57570000       0.19470000
C       -0.00980000       0.05410000       0.02570000
C       -1.41330000      -0.56100000       0.05010000
C       -1.41770000      -2.08290000      -0.12710000
C       -2.82170000      -2.69500000      -0.09590000
C       -2.82420000      -4.21850000      -0.28120000
C       -4.21380000      -4.80430000      -0.23550000
C       -4.50290000      -6.11540000       0.35700000
O       -4.82060000      -4.91140000       1.05740000
H        0.99990000       1.98500000       0.17640000
H       -0.58410000       2.06100000      -0.60630000
H       -0.47400000       1.86680000       1.14630000
H        0.48320000      -0.20830000      -0.92000000
H        0.59800000      -0.40100000       0.81910000
H       -1.90540000      -0.30410000       0.99860000
H       -2.02420000      -0.10130000      -0.73960000
H       -0.92920000      -2.33960000      -1.07790000
H       -0.80420000      -2.54240000       0.66050000
H       -3.30890000      -2.45600000       0.85770000
H       -3.43830000      -2.23320000      -0.87960000
H       -2.36230000      -4.47770000      -1.24400000
H       -2.21670000      -4.68990000       0.50100000
H       -4.89770000      -4.44100000      -1.00630000
H       -5.35700000      -6.69550000       0.00940000
H       -3.68830000      -6.70160000       0.78140000
