21
Properties=species:S:1:pos:R:3 gdb_111905=T pbc="F F F"
C        0.04570000       1.62260000       0.13200000
C       -0.01610000       0.09600000       0.03580000
C        0.66980000      -0.47910000      -1.22660000
C        0.79900000      -1.97990000      -1.23510000
C        0.20900000      -2.57400000      -2.27740000
C        0.15190000      -4.04050000      -2.56480000
C       -0.42560000      -1.56000000      -3.19700000
C       -0.13260000      -0.21450000      -2.51690000
O       -0.48560000       0.86290000      -2.92440000
H        1.08430000       1.96860000       0.18650000
H       -0.41450000       2.08850000      -0.74200000
H       -0.47090000       1.97630000       1.02980000
H        0.46610000      -0.35240000       0.91360000
H       -1.05930000      -0.24340000       0.05820000
H        1.64960000       0.01280000      -1.32740000
H        1.32010000      -2.51390000      -0.44610000
H        0.66690000      -4.62060000      -1.79410000
H       -0.88580000      -4.39350000      -2.62270000
H        0.61250000      -4.27350000      -3.53330000
H       -0.00190000      -1.56490000      -4.21070000
H       -1.50800000      -1.69540000      -3.32460000
