14
Properties=species:S:1:pos:R:3 gdb_128076=T pbc="F F F"
C       -0.07970000       1.41910000       0.03950000
N       -0.03920000      -0.02030000      -0.12460000
C        0.77740000      -0.62650000      -1.02440000
O        1.54560000      -0.05960000      -1.77440000
C        0.65360000      -2.12830000      -1.02300000
N       -0.16600000      -2.76590000      -0.22620000
O        0.03270000      -4.10460000      -0.54580000
C        0.96140000      -4.11420000      -1.51080000
N        1.38800000      -2.94390000      -1.85460000
H        0.63270000       1.85080000      -0.66410000
H       -1.07890000       1.81350000      -0.17470000
H        0.20140000       1.70900000       1.05770000
H       -0.63290000      -0.60580000       0.44260000
H        1.25480000      -5.07890000      -1.89720000
