19
Properties=species:S:1:pos:R:3 gdb_110730=T pbc="F F F"
O        0.04350000       1.37210000      -0.23880000
C        0.05220000       0.03160000       0.23570000
C       -1.31060000      -0.60780000       0.13990000
C       -1.87030000      -1.24670000      -1.14810000
C       -0.89810000      -1.72740000      -2.16720000
C       -0.10470000      -2.69190000      -1.68810000
C       -0.44630000      -3.04540000      -0.25820000
C       -1.58040000      -2.07650000       0.10470000
O       -2.57670000      -2.52520000       0.97050000
H       -0.26630000       1.34520000      -1.15020000
H        0.80530000      -0.56900000      -0.29220000
H        0.35750000       0.09220000       1.28610000
H       -2.07760000      -0.06710000       0.68860000
H       -2.88150000      -0.97470000      -1.43070000
H       -0.84860000      -1.32390000      -3.17290000
H        0.69700000      -3.17640000      -2.23320000
H       -0.79580000      -4.08480000      -0.16920000
H        0.41150000      -2.95790000       0.41950000
H       -3.01310000      -3.27900000       0.55720000
