19
Properties=species:S:1:pos:R:3 gdb_122711=T pbc="F F F"
C       -0.84580000       1.16900000       0.54950000
O       -0.04450000       0.61400000       1.56830000
C        1.05040000      -0.14460000       1.10340000
C        0.65690000      -1.56780000       0.67210000
N        1.85400000      -2.33620000       0.39050000
C        1.99120000      -2.80790000      -0.77530000
N        3.12280000      -3.54120000      -1.11130000
C        3.34660000      -4.08670000      -2.35420000
O        2.59460000      -3.99200000      -3.29470000
H       -1.37720000       0.40600000      -0.03800000
H       -1.58730000       1.80750000       1.03610000
H       -0.24960000       1.78310000      -0.14370000
H        1.55920000       0.36770000       0.27060000
H        1.75940000      -0.21570000       1.93390000
H        0.12570000      -2.03380000       1.51080000
H       -0.03480000      -1.53520000      -0.18510000
H        1.28410000      -2.70940000      -1.60370000
H        3.80790000      -3.66900000      -0.37960000
H        4.30950000      -4.62970000      -2.39230000
