16
Properties=species:S:1:pos:R:3 gdb_2430=T pbc="F F F"
C       -0.05990000       1.46980000       0.04580000
C        0.10140000      -0.01620000      -0.04150000
C        0.06070000      -0.88120000      -1.29320000
C       -0.26570000      -2.01940000      -0.31090000
C        1.00000000      -2.23130000       0.54120000
C        0.68130000      -0.84380000       1.06510000
N       -0.78470000      -0.96710000       0.72490000
H        0.83460000       1.98330000      -0.32510000
H       -0.91650000       1.80730000      -0.54730000
H       -0.22440000       1.78130000       1.08200000
H       -0.80540000      -0.62220000      -1.90910000
H        0.95170000      -0.97020000      -1.92500000
H       -0.90860000      -2.85060000      -0.59400000
H        0.83930000      -2.98660000       1.31490000
H        1.95170000      -2.41660000       0.03110000
H        0.99940000      -0.39440000       2.00000000
