11
Properties=species:S:1:pos:R:3 gdb_20692=T pbc="F F F"
C       -0.11790000       1.74870000      -0.00840000
C       -0.04250000       0.26080000      -0.22240000
N       -1.32760000      -0.34670000      -0.17640000
C       -1.66780000      -1.51000000      -0.30150000
O       -2.11500000      -2.57740000      -0.40600000
N        1.09760000      -3.25240000       0.83120000
N        2.06870000      -3.69020000       0.56260000
O        0.96690000      -0.36350000      -0.41260000
H        0.88170000       2.17900000      -0.05250000
H       -0.75940000       2.20020000      -0.77150000
H       -0.57910000       1.95940000       0.96150000
