18
Properties=species:S:1:pos:R:3 gdb_73105=T pbc="F F F"
C       -0.18950000       1.52460000       0.23760000
C        0.10070000       0.05520000       0.03380000
C       -1.10570000      -0.92580000       0.13270000
C       -0.51360000      -1.50360000       1.45280000
C        0.81050000      -0.73870000       1.17970000
N        1.79830000      -1.45070000       0.41090000
C        1.90290000      -1.03020000      -0.89490000
O        2.70160000      -1.37640000      -1.71960000
O        0.90790000      -0.11740000      -1.13660000
H        0.74070000       2.09420000       0.31950000
H       -0.76270000       1.91850000      -0.60720000
H       -0.77530000       1.67680000       1.14950000
H       -2.09190000      -0.46190000       0.20120000
H       -1.10820000      -1.63740000      -0.69470000
H       -1.02210000      -1.13520000       2.34760000
H       -0.42510000      -2.58940000       1.51770000
H        1.24520000      -0.17770000       2.01410000
H        2.53440000      -2.01270000       0.80220000
