17
Properties=species:S:1:pos:R:3 gdb_32691=T pbc="F F F"
C       -0.11230000       1.56460000      -0.01620000
C        0.09340000       0.04670000       0.02190000
N        0.81230000      -0.38860000      -1.16330000
C        1.90860000      -1.03140000      -1.05760000
C        2.63530000      -1.46030000      -2.25090000
C        3.77600000      -2.14140000      -2.13070000
O        4.31070000      -2.46200000      -0.90790000
C        3.60200000      -2.03530000       0.17120000
N        2.51420000      -1.38740000       0.18010000
H        0.84780000       2.08760000       0.03940000
H       -0.60610000       1.86430000      -0.94500000
H       -0.72780000       1.89000000       0.82860000
H        0.58850000      -0.24790000       0.95450000
H       -0.89080000      -0.44150000       0.00090000
H        2.23200000      -1.21870000      -3.22540000
H        4.39260000      -2.50860000      -2.93980000
H        4.10570000      -2.33170000       1.08760000
