17
Properties=species:S:1:pos:R:3 gdb_126815=T pbc="F F F"
C       -0.09790000       1.53630000       0.02620000
C        0.06300000       0.01640000      -0.00310000
N        0.73240000      -0.49460000       1.19950000
N        2.04910000      -0.69650000       1.08630000
C        2.69210000      -1.13810000       2.13260000
C        2.05260000      -1.41060000       3.37380000
C        0.71740000      -1.20000000       3.48370000
C       -0.04710000      -0.69210000       2.36040000
O       -1.24340000      -0.44180000       2.35650000
H        0.87630000       2.02850000       0.10140000
H       -0.58450000       1.87530000      -0.89330000
H       -0.71730000       1.83600000       0.87430000
H       -0.91480000      -0.46640000      -0.05220000
H        0.67430000      -0.30270000      -0.84830000
H        3.75640000      -1.29110000       1.99490000
H        2.63790000      -1.78210000       4.20880000
H        0.16190000      -1.38420000       4.39540000
