16
Properties=species:S:1:pos:R:3 gdb_8734=T pbc="F F F"
C       -0.06270000       1.58820000      -0.06980000
C        0.04830000       0.05270000      -0.01800000
C        0.68180000      -0.48550000      -1.21850000
C        1.18710000      -0.92970000      -2.21380000
C        0.80030000      -0.44750000       1.25570000
N        2.14460000       0.11440000       1.34490000
C       -0.02280000      -0.18330000       2.45820000
N       -0.63400000       0.05110000       3.41180000
H        0.92410000       2.04610000      -0.17600000
H       -0.66280000       1.89020000      -0.93090000
H       -0.54330000       1.96940000       0.83630000
H       -0.96700000      -0.35950000       0.04750000
H        1.63660000      -1.32060000      -3.09300000
H        0.90180000      -1.53360000       1.16410000
H        2.10390000       1.09020000       1.62160000
H        2.67810000      -0.36820000       2.06050000
