23
Properties=species:S:1:pos:R:3 gdb_64482=T pbc="F F F"
C        0.18590000       1.50680000       0.07290000
C        0.01920000      -0.01340000       0.00120000
C       -1.46260000      -0.41590000       0.00770000
C        0.67770000      -0.55390000      -1.28890000
O        2.08450000      -0.43950000      -1.31180000
C        2.76240000      -1.58690000      -0.82790000
C        2.65510000      -1.78110000       0.68470000
C        1.21590000      -1.78770000       1.21310000
O        0.64450000      -0.49410000       1.20010000
H        1.24080000       1.76810000      -0.04070000
H       -0.38810000       2.00270000      -0.71620000
H       -0.16320000       1.87310000       1.04190000
H       -1.97590000      -0.06600000      -0.89440000
H       -1.57400000      -1.50430000       0.05750000
H       -1.96300000       0.01680000       0.87820000
H        0.37810000      -1.59830000      -1.46490000
H        0.29300000       0.03550000      -2.12970000
H        2.38030000      -2.48390000      -1.34510000
H        3.80960000      -1.46070000      -1.12040000
H        3.14510000      -2.72850000       0.94750000
H        3.19350000      -0.97790000       1.20000000
H        0.59790000      -2.51930000       0.66970000
H        1.21760000      -2.09640000       2.26420000
