15
Properties=species:S:1:pos:R:3 gdb_133835=T pbc="F F F"
O        1.60950000       0.55580000       0.94310000
C        2.68860000       0.13440000       0.22680000
C        4.07670000       0.55880000       0.61160000
C        3.58020000       1.08040000      -0.70620000
C        4.18040000      -0.17970000      -1.31420000
N        3.33300000      -1.02930000      -1.80670000
C        2.86240000      -1.40180000      -0.43530000
C        4.14890000      -1.80800000       0.28490000
N        4.85340000      -0.52860000      -0.04970000
H        0.81990000       0.47020000       0.39510000
H        4.42010000       1.04740000       1.51450000
H        3.30430000       2.06020000      -1.06530000
H        1.97000000      -2.02810000      -0.42450000
H        4.65070000      -2.66470000      -0.16690000
H        4.07500000      -1.92460000       1.36740000
