19
Properties=species:S:1:pos:R:3 gdb_114699=T pbc="F F F"
C        0.05400000       1.06820000       0.68730000
O       -0.18910000      -0.30300000       0.42490000
C       -1.40070000      -0.53970000      -0.24540000
C       -1.51700000      -2.05120000      -0.50840000
C       -2.44570000      -2.54600000       0.59340000
O       -3.24850000      -3.65670000       0.34060000
C       -2.08960000      -2.16040000       2.01790000
C       -3.03190000      -1.30940000       1.18770000
O       -2.52630000      -0.16610000       0.54190000
H        1.03070000       1.13160000       1.17160000
H        0.07860000       1.65180000      -0.24560000
H       -0.71080000       1.49340000       1.34660000
H       -1.44350000       0.08070000      -1.15180000
H       -1.99960000      -2.24060000      -1.47150000
H       -0.52450000      -2.50750000      -0.51130000
H       -2.73050000      -4.44720000       0.52810000
H       -2.55750000      -2.75140000       2.79870000
H       -1.09580000      -1.78380000       2.22930000
H       -4.07610000      -1.21460000       1.45820000
