19
Properties=species:S:1:pos:R:3 gdb_102192=T pbc="F F F"
O        0.34710000       1.43900000       0.11550000
C        0.23320000       0.06130000      -0.16550000
C       -1.18270000      -0.50330000       0.06350000
C       -2.18040000      -0.12370000      -1.06120000
C       -2.36080000       1.31030000      -1.26570000
C       -2.51030000       2.49180000      -1.44070000
C       -1.13440000      -2.01180000       0.17850000
C       -1.15240000      -2.70190000       1.47380000
O       -2.32060000      -2.65590000       0.65000000
H       -0.29440000       1.90630000      -0.43380000
H        0.55760000      -0.17440000      -1.19440000
H        0.93250000      -0.44300000       0.51120000
H       -1.55320000      -0.09350000       1.00960000
H       -1.84420000      -0.57850000      -2.00350000
H       -3.14920000      -0.57980000      -0.82700000
H       -2.66210000       3.53150000      -1.59670000
H       -0.66300000      -2.52790000      -0.66190000
H       -0.69080000      -3.68290000       1.57450000
H       -1.20490000      -2.11590000       2.39030000
