15
Properties=species:S:1:pos:R:3 gdb_128339=T pbc="F F F"
C        0.05030000       1.46570000      -0.03360000
N       -0.10660000       0.02050000      -0.09260000
C        0.54730000      -0.69440000      -1.05760000
N        1.13690000      -0.10270000      -2.10150000
N        1.59400000      -1.14930000      -2.80740000
N        1.37520000      -2.34300000      -2.33150000
C        0.69460000      -2.10940000      -1.19300000
C        0.21800000      -3.16820000      -0.31020000
O        0.38160000      -4.35540000      -0.46950000
H        1.08890000       1.77630000       0.14520000
H       -0.27320000       1.90720000      -0.97920000
H       -0.58240000       1.85340000       0.76720000
H       -0.20440000      -0.44550000       0.79450000
H        2.09250000      -1.00930000      -3.67220000
H       -0.34490000      -2.78590000       0.57410000
