19
Properties=species:S:1:pos:R:3 gdb_120584=T pbc="F F F"
C       -0.02520000       1.55990000      -0.16270000
C       -0.23420000       0.06510000      -0.38200000
N        1.03010000      -0.58840000      -0.71360000
C        0.93220000      -1.99440000      -0.93010000
C        0.28990000      -2.61280000      -2.16310000
C        1.80540000      -2.61220000      -1.99870000
O        2.55590000      -1.70260000      -2.74880000
C        2.47500000      -3.86560000      -1.72320000
N        3.00620000      -4.87390000      -1.52600000
H        0.70750000       1.73500000       0.62990000
H        0.34260000       2.04340000      -1.07520000
H       -0.96510000       2.04580000       0.11430000
H       -0.61820000      -0.39480000       0.53770000
H       -1.00810000      -0.09760000      -1.15420000
H        1.47530000      -0.14550000      -1.51020000
H        0.83660000      -2.57540000      -0.01590000
H       -0.23700000      -3.55640000      -2.07650000
H       -0.07840000      -1.93430000      -2.92540000
H        2.59810000      -2.01830000      -3.65870000
