17
Properties=species:S:1:pos:R:3 gdb_46101=T pbc="F F F"
N       -0.27360000       1.09740000      -0.57970000
C       -0.12740000      -0.11520000      -0.26720000
C       -1.14150000      -0.97430000       0.46150000
C       -0.67970000      -2.40690000       0.14850000
C       -1.33030000      -2.92870000      -1.15370000
C       -0.87190000      -4.26980000      -1.50890000
N       -0.48890000      -5.32960000      -1.76520000
C        0.83620000      -2.19160000      -0.00350000
O        0.98140000      -0.86960000      -0.54600000
H        0.56150000       1.45290000      -1.04830000
H       -1.07510000      -0.77250000       1.53600000
H       -2.15860000      -0.73980000       0.14440000
H       -0.89720000      -3.10570000       0.95880000
H       -2.41990000      -2.94800000      -1.04340000
H       -1.10770000      -2.24960000      -1.98530000
H        1.34380000      -2.24230000       0.96720000
H        1.31740000      -2.89440000      -0.68750000
