14
Properties=species:S:1:pos:R:3 gdb_27809=T pbc="F F F"
C       -0.01650000       1.49480000       0.00480000
C        0.00250000      -0.00850000       0.01420000
N       -0.02380000      -0.60930000      -1.15870000
C       -0.00990000      -1.95780000      -1.24800000
O       -0.02870000      -2.66650000      -2.20240000
O        0.03660000      -2.70260000       0.04980000
C        0.06140000      -2.05100000       1.18900000
O        0.10190000      -2.82600000       2.26760000
C        0.04650000      -0.68770000       1.25430000
H        0.87180000       1.88990000       0.50980000
H       -0.04670000       1.86270000      -1.02030000
H       -0.88870000       1.86750000       0.55310000
H        0.10490000      -3.74860000       1.97370000
H        0.06760000      -0.17800000       2.20530000
