18
Properties=species:S:1:pos:R:3 gdb_47703=T pbc="F F F"
O       -0.01160000      -0.09280000       0.03650000
C       -0.02280000       1.11440000       0.02340000
C       -1.32350000       1.90740000       0.01170000
C       -1.52540000       2.82880000       1.22920000
C       -0.40290000       3.85480000       1.44530000
N        0.82490000       3.29210000       1.98970000
C        1.69390000       2.42580000       1.38580000
O        2.72750000       2.07710000       1.91820000
C        1.28170000       1.91520000      -0.00220000
H       -1.33160000       2.52220000      -0.89950000
H       -2.14370000       1.18930000      -0.06030000
H       -2.46820000       3.37080000       1.09250000
H       -1.63050000       2.22750000       2.13910000
H       -0.20050000       4.39090000       0.50640000
H       -0.74070000       4.60890000       2.16060000
H        1.13950000       3.61240000       2.89310000
H        2.08540000       1.26640000      -0.34580000
H        1.17960000       2.76970000      -0.68190000
