17
Properties=species:S:1:pos:R:3 gdb_15623=T pbc="F F F"
C       -0.23140000       1.51500000      -0.06490000
C        0.09960000       0.01470000       0.03340000
C        0.79710000      -0.49980000      -1.18520000
C        2.04630000      -0.94580000      -1.34840000
C        2.29070000      -1.35860000      -2.77700000
N        1.01370000      -1.08200000      -3.39100000
C        0.08640000      -0.58260000      -2.50680000
O       -1.06440000      -0.28040000      -2.75600000
H        0.68050000       2.11300000      -0.16150000
H       -0.86320000       1.70440000      -0.93570000
H       -0.76490000       1.85000000       0.82960000
H        0.71200000      -0.18270000       0.91990000
H       -0.83810000      -0.54110000       0.15520000
H        2.81500000      -1.02330000      -0.58950000
H        3.10740000      -0.78030000      -3.23400000
H        2.56740000      -2.42090000      -2.85070000
H        0.79170000      -1.25270000      -4.35660000
