16
Properties=species:S:1:pos:R:3 gdb_44342=T pbc="F F F"
O       -0.00390000       0.02880000       0.06370000
C        0.01400000       1.22960000      -0.03100000
N       -1.07640000       2.09810000      -0.14130000
C       -0.46520000       3.41440000       0.01710000
C        0.75920000       3.37660000      -0.97210000
C        1.59660000       4.56700000      -0.52350000
C        1.56130000       4.49720000       0.80990000
C        0.70320000       3.27180000       1.08310000
C        1.18640000       2.21320000       0.00350000
H       -1.94540000       1.85320000       0.31150000
H       -1.16010000       4.25380000       0.03250000
H        0.60090000       3.18530000      -2.03320000
H        2.05920000       5.29750000      -1.17140000
H        1.98720000       5.15620000       1.55280000
H        0.49600000       2.96730000       2.10960000
H        2.19200000       1.79740000       0.01060000
