18
Properties=species:S:1:pos:R:3 gdb_35981=T pbc="F F F"
N       -0.16650000      -1.13030000      -0.41440000
C       -0.10640000       0.00760000      -0.22410000
C       -0.02660000       1.45690000      -0.02080000
C       -0.81510000       1.86780000       1.25010000
O       -0.43950000       1.12290000       2.37850000
C        0.71530000       1.51750000       3.10480000
C        1.81700000       2.21880000       2.30780000
O        2.17770000       1.54190000       1.11860000
C        1.44260000       1.94050000      -0.01220000
H       -0.51280000       1.93640000      -0.88210000
H       -0.71420000       2.95320000       1.39860000
H       -1.87610000       1.65450000       1.09070000
H        0.43380000       2.18260000       3.93790000
H        1.10920000       0.59120000       3.53450000
H        1.53810000       3.25840000       2.07810000
H        2.70900000       2.25910000       2.94370000
H        1.96760000       1.53510000      -0.88110000
H        1.43370000       3.03960000      -0.09850000
