16
Properties=species:S:1:pos:R:3 gdb_72843=T pbc="F F F"
O        0.10960000       1.40220000      -0.21800000
C        0.04260000       0.02330000       0.02600000
C        0.20340000      -0.91140000      -1.19960000
O       -1.15520000      -1.38260000      -1.07250000
C       -1.38300000      -0.55220000       0.08940000
C       -1.44880000      -1.39530000       1.37030000
O       -2.39800000      -2.00620000       1.80240000
N       -0.19230000      -1.35410000       1.92310000
C        0.74620000      -0.41730000       1.33280000
H        1.02890000       1.64590000      -0.37530000
H        0.36360000      -0.37360000      -2.14130000
H        0.93310000      -1.72470000      -1.10250000
H       -2.23320000       0.12340000      -0.02560000
H       -0.01670000      -1.82510000       2.79740000
H        1.72060000      -0.88530000       1.14550000
H        0.90170000       0.46420000       1.96860000
