22
Properties=species:S:1:pos:R:3 gdb_115855=T pbc="F F F"
C        0.02780000       1.62460000       0.63630000
O        0.36820000       0.34740000       0.14850000
C        0.49680000      -0.63380000       1.16410000
C       -0.85580000      -1.12510000       1.75540000
C       -0.76350000      -2.67070000       1.76180000
N        0.43300000      -3.09630000       1.00680000
C        0.46950000      -2.70850000      -0.41660000
C       -0.73090000      -2.29370000      -1.23910000
C        1.16630000      -1.87900000       0.60540000
H        0.76480000       1.98760000       1.37060000
H        0.01650000       2.30580000      -0.21810000
H       -0.96480000       1.64150000       1.11160000
H        1.13120000      -0.22390000       1.96640000
H       -1.02610000      -0.73270000       2.76140000
H       -1.67410000      -0.76210000       1.12790000
H       -0.64370000      -3.04760000       2.78250000
H       -1.65990000      -3.14520000       1.34930000
H        1.12310000      -3.38360000      -0.96910000
H       -1.30420000      -1.47630000      -0.80520000
H       -0.38870000      -1.95690000      -2.22290000
H       -1.39870000      -3.14840000      -1.39900000
H        2.25040000      -1.92000000       0.67350000
