21
Properties=species:S:1:pos:R:3 gdb_108318=T pbc="F F F"
C       -0.01970000       1.58870000       0.10460000
C        0.12040000       0.07240000      -0.08500000
C        0.67850000      -0.59910000       1.14370000
C        2.16420000      -0.45750000       1.53290000
O        2.25210000      -1.87550000       1.83520000
C        0.89390000      -2.10370000       1.42270000
C       -0.13920000      -1.92180000       2.55260000
C        0.24640000      -2.27750000       3.97040000
O       -0.18020000      -0.48260000       2.30460000
H        0.95340000       2.06160000       0.27690000
H       -0.46410000       2.05430000      -0.77960000
H       -0.65720000       1.80670000       0.96560000
H       -0.85960000      -0.36480000      -0.30970000
H        0.77330000      -0.14790000      -0.93840000
H        2.84170000      -0.18940000       0.71160000
H        2.35890000       0.17410000       2.40540000
H        0.79320000      -2.93660000       0.72370000
H       -1.11010000      -2.36350000       2.28460000
H        1.26750000      -1.95230000       4.18100000
H       -0.43630000      -1.79600000       4.67680000
H        0.18630000      -3.36080000       4.12060000
