19
Properties=species:S:1:pos:R:3 gdb_106581=T pbc="F F F"
C        0.11280000       1.50930000      -0.08130000
C       -0.04720000      -0.00850000       0.06900000
C        0.64040000      -0.54980000       1.29500000
O        2.10000000      -0.34430000       1.35050000
C        2.04850000      -1.33730000       2.42030000
C        1.18090000      -0.63390000       3.47210000
C        0.22370000      -0.09980000       2.71370000
C        0.96210000      -2.05990000       1.54110000
O       -0.03820000      -2.86250000       2.09110000
H        1.17110000       1.78010000      -0.12470000
H       -0.37220000       1.86420000      -0.99520000
H       -0.33200000       2.04300000       0.76470000
H       -1.10880000      -0.27950000       0.12680000
H        0.36000000      -0.51450000      -0.81390000
H        3.01360000      -1.76570000       2.68830000
H        1.32210000      -0.62810000       4.54260000
H       -0.64980000       0.47760000       2.97800000
H        1.41980000      -2.50920000       0.65160000
H        0.20280000      -3.78400000       1.96120000
