14
Properties=species:S:1:pos:R:3 gdb_1636=T pbc="F F F"
C       -0.15390000       1.46420000      -0.03890000
N       -0.21460000       0.00040000       0.01120000
C       -0.41500000      -0.61970000       1.23570000
O       -0.54630000      -0.03480000       2.28370000
C       -0.06230000      -0.68530000      -1.20360000
C       -0.11940000      -2.20210000      -1.19470000
O        0.10990000      -0.05680000      -2.22390000
H        0.81010000       1.78420000      -0.43870000
H       -0.93920000       1.84810000      -0.69280000
H       -0.28810000       1.83080000       0.97660000
H       -0.44430000      -1.71690000       1.16400000
H       -1.08030000      -2.57140000      -0.82450000
H        0.01680000      -2.53060000      -2.22450000
H        0.66980000      -2.63530000      -0.57310000
