16
Properties=species:S:1:pos:R:3 gdb_54843=T pbc="F F F"
O        0.09540000       1.43170000      -0.10910000
C        0.00370000       0.06090000      -0.09980000
C        0.45840000      -0.83100000      -1.26120000
N       -0.65970000      -1.79670000      -0.94880000
H       -1.28140000      -1.92900000      -1.73810000
H        0.17990000      -2.84170000       0.16980000
C       -1.20430000      -0.83400000       0.04680000
C       -0.21170000      -0.73420000       1.18570000
C        0.66690000      -1.84310000       1.72030000
O        0.76050000      -2.94770000       0.96950000
O        1.25180000      -1.72470000       2.76620000
H        0.83510000       1.69780000       0.44910000
H        0.30760000      -0.32000000      -2.21540000
H        1.45500000      -1.28020000      -1.22600000
H       -2.26450000      -0.64430000       0.15520000
H       -0.54860000      -0.07320000       1.97820000
