20
Properties=species:S:1:pos:R:3 gdb_86157=T pbc="F F F"
C        0.08360000       1.59640000      -0.01880000
C        0.00700000       0.06450000       0.01310000
C        0.62900000      -0.54540000      -1.24770000
N        0.77000000      -1.99460000      -1.15930000
C        0.85910000      -2.72860000      -2.40850000
C        1.25110000      -2.58330000      -0.01000000
O        1.61630000      -3.74890000       0.04040000
C        1.25510000      -1.71860000       1.19920000
C        0.67120000      -0.52070000       1.23230000
H        1.12400000       1.93800000      -0.04190000
H       -0.42420000       1.99830000      -0.90130000
H       -0.39190000       2.02850000       0.86700000
H       -1.05590000      -0.22300000       0.04570000
H        0.00190000      -0.31960000      -2.11640000
H        1.61000000      -0.07360000      -1.43130000
H        1.71480000      -2.39650000      -3.01420000
H        0.98600000      -3.78450000      -2.17370000
H       -0.05370000      -2.58560000      -2.99700000
H        1.71440000      -2.17320000       2.06930000
H        0.63330000       0.05310000       2.15600000
