20
Properties=species:S:1:pos:R:3 gdb_110470=T pbc="F F F"
C        0.05870000       1.56000000      -0.09180000
C        0.04610000       0.04280000       0.12580000
C       -1.34940000      -0.56020000       0.05360000
C       -2.11130000      -0.65860000      -1.30160000
C       -1.33300000      -1.65380000      -2.18780000
C       -0.93580000      -2.68320000      -1.18590000
C       -1.55430000      -2.10010000       0.10270000
C       -2.81760000      -1.96070000      -0.80580000
N       -2.23370000      -2.82880000      -1.92920000
H        1.07470000       1.96240000      -0.03390000
H       -0.34750000       1.82370000      -1.07430000
H       -0.54630000       2.07330000       0.66380000
H        0.68480000      -0.44370000      -0.62230000
H        0.48710000      -0.19140000       1.10380000
H       -2.01200000      -0.09210000       0.79470000
H       -2.62060000       0.18260000      -1.76710000
H       -0.85380000      -1.50280000      -3.14720000
H       -0.12530000      -3.39070000      -1.30930000
H       -1.50950000      -2.67810000       1.02370000
H       -3.85650000      -2.06550000      -0.50210000
