14
Properties=species:S:1:pos:R:3 gdb_10456=T pbc="F F F"
N       -0.19260000       1.28000000       0.07220000
C       -0.10780000       0.02950000       0.16840000
O       -1.12760000      -0.73880000      -0.31180000
C       -1.01620000      -2.12170000      -0.10090000
C       -1.40060000      -2.67440000       1.26100000
C       -2.32940000      -2.83560000       0.09000000
C        0.03680000      -2.77260000      -0.84850000
N        0.88940000      -3.28900000      -1.43500000
H        0.63980000       1.72030000       0.45890000
H        0.71380000      -0.55410000       0.59920000
H       -0.86160000      -3.54020000       1.62650000
H       -1.65220000      -1.93000000       2.00740000
H       -3.20180000      -2.19520000       0.04040000
H       -2.43910000      -3.81370000      -0.36140000
