16
Properties=species:S:1:pos:R:3 gdb_21207=T pbc="F F F"
C        0.06120000       1.37920000       0.18560000
N       -0.04530000       0.00460000      -0.26890000
C       -1.25950000      -0.65330000      -0.12890000
N       -1.28880000      -1.97190000       0.02880000
N       -2.62890000      -2.26360000       0.07810000
C       -3.41060000      -1.16790000      -0.04170000
N       -4.80390000      -1.26820000      -0.08910000
C       -2.56190000      -0.08360000      -0.16830000
H        1.08700000       1.72440000       0.03350000
H       -0.59060000       2.02400000      -0.41310000
H       -0.20210000       1.52330000       1.24600000
H        0.72080000      -0.58580000       0.02450000
H       -2.91920000      -3.22490000       0.06070000
H       -5.18990000      -1.82650000       0.66340000
H       -5.24280000      -0.35740000      -0.08250000
H       -2.84400000       0.95190000      -0.25840000
