17
Properties=species:S:1:pos:R:3 gdb_47947=T pbc="F F F"
O        0.18890000       0.03800000       0.45190000
C        0.03590000       1.17310000       0.11150000
O       -1.17690000       1.71920000      -0.06100000
C       -1.27960000       2.95090000      -0.80570000
C       -1.19420000       2.72080000      -2.31720000
C        0.02310000       1.93060000      -2.81980000
O        1.27410000       2.46930000      -2.39200000
C        1.83140000       1.83780000      -1.28800000
O        1.05910000       2.05840000      -0.10420000
H       -2.26050000       3.35050000      -0.54120000
H       -0.50910000       3.64600000      -0.47330000
H       -2.08830000       2.18670000      -2.66080000
H       -1.20690000       3.70830000      -2.79370000
H       -0.05170000       0.87490000      -2.52350000
H        0.02860000       1.95690000      -3.91400000
H        1.93160000       0.75320000      -1.43590000
H        2.80070000       2.30360000      -1.11030000
