17
Properties=species:S:1:pos:R:3 gdb_81556=T pbc="F F F"
O        0.08470000       1.46590000      -0.13670000
C        0.08470000       0.08300000      -0.07370000
C        0.00280000      -0.59510000       1.32730000
O       -1.39710000      -0.08100000       1.42990000
C       -1.28320000      -0.65320000       0.05350000
C       -0.56190000      -1.86270000       0.66780000
C        0.20260000      -2.98370000      -0.05310000
O       -0.50440000      -3.98330000       0.70620000
C       -1.26630000      -2.98860000       1.43030000
H       -0.57380000       1.74870000       0.51530000
H        0.81190000      -0.30530000      -0.79020000
H        0.64060000      -0.48710000       2.20530000
H       -2.17070000      -0.61400000      -0.57910000
H        0.01740000      -3.07440000      -1.13150000
H        1.28560000      -3.01730000       0.12470000
H       -1.07590000      -3.02820000       2.50930000
H       -2.34400000      -3.08530000       1.25340000
