22
Properties=species:S:1:pos:R:3 gdb_56017=T pbc="F F F"
C       -0.73850000       1.32720000       0.22790000
C       -0.11110000      -0.03490000       0.33330000
N        1.06450000      -0.19100000       0.78700000
O       -0.98080000      -0.97810000      -0.12060000
C       -0.57720000      -2.35800000      -0.13020000
C       -0.65050000      -2.98240000       1.29060000
C       -1.95090000      -3.83200000       1.32240000
C       -2.74120000      -3.40430000       0.07160000
C       -1.63460000      -3.10680000      -0.95020000
H       -0.04060000       2.08040000       0.59060000
H       -1.00800000       1.54040000      -0.81110000
H       -1.66160000       1.36440000       0.81500000
H        1.35320000      -1.16760000       0.80800000
H        0.42110000      -2.42520000      -0.57630000
H        0.23360000      -3.59330000       1.49620000
H       -0.66500000      -2.18520000       2.03720000
H       -1.70330000      -4.89720000       1.25570000
H       -2.51520000      -3.69490000       2.24830000
H       -3.45000000      -4.16440000      -0.26740000
H       -3.30580000      -2.48750000       0.27260000
H       -1.95940000      -2.52160000      -1.81340000
H       -1.19960000      -4.04380000      -1.31840000
