16
Properties=species:S:1:pos:R:3 gdb_54294=T pbc="F F F"
C        0.50200000       1.13310000      -0.62320000
C        0.06710000      -0.02010000       0.24330000
O        0.74900000      -0.46640000       1.13470000
C       -1.31860000      -0.64080000       0.00930000
C       -1.54120000      -1.98760000       0.58290000
O       -2.06040000      -0.83380000       1.22870000
C       -2.14320000      -0.24930000      -1.20250000
N       -3.46890000      -0.13340000      -0.94670000
O       -1.63330000      -0.09120000      -2.29710000
H        1.49070000       1.46500000      -0.30600000
H        0.49880000       0.83170000      -1.67330000
H       -0.21480000       1.95860000      -0.54010000
H       -2.27760000      -2.63820000       0.11510000
H       -0.70470000      -2.45810000       1.09230000
H       -3.80790000      -0.22330000      -0.00330000
H       -4.09090000       0.11220000      -1.69830000
