22
Properties=species:S:1:pos:R:3 gdb_105199=T pbc="F F F"
C       -0.84460000       1.08690000       0.53670000
C       -0.80250000      -0.21910000      -0.26580000
C        0.38540000      -0.27780000      -1.21060000
N        1.70870000      -0.49770000      -0.58500000
C        1.17220000      -1.54710000      -1.44390000
C        0.82970000      -2.87970000      -0.82120000
C        0.27160000       0.63730000      -2.40820000
C        1.53360000       1.05220000      -3.15640000
O       -0.80930000       1.06760000      -2.74990000
H        0.07560000       1.21170000       1.11620000
H       -0.96000000       1.95140000      -0.12320000
H       -1.68740000       1.08610000       1.23430000
H       -0.75850000      -1.06520000       0.42330000
H       -1.71550000      -0.32140000      -0.85930000
H        2.43760000       0.03200000      -1.05490000
H        1.60800000      -1.63880000      -2.43860000
H        0.49390000      -2.76860000       0.21070000
H        0.04860000      -3.38960000      -1.39460000
H        1.71610000      -3.52320000      -0.81430000
H        2.04280000       1.84330000      -2.59190000
H        2.25060000       0.23980000      -3.30280000
H        1.24180000       1.46040000      -4.12460000
