17
Properties=species:S:1:pos:R:3 gdb_2701=T pbc="F F F"
O       -0.07590000       1.46810000       0.01060000
C        0.03080000       0.05250000       0.00190000
C       -1.37900000      -0.52330000       0.01230000
C       -1.39600000      -2.05330000       0.00430000
C       -2.82890000      -2.62300000       0.01490000
C       -2.86490000      -4.08030000       0.00760000
C       -2.86700000      -5.28240000       0.00110000
H        0.81210000       1.83680000       0.00400000
H        0.57040000      -0.30170000      -0.89200000
H        0.58730000      -0.31130000       0.88150000
H       -1.90200000      -0.14250000       0.89840000
H       -1.91880000      -0.13310000      -0.85950000
H       -0.87140000      -2.43340000      -0.88040000
H       -0.85460000      -2.44280000       0.87470000
H       -3.36300000      -2.24910000       0.89850000
H       -3.37980000      -2.23980000      -0.85420000
H       -2.88220000      -6.34380000      -0.00460000
