22
Properties=species:S:1:pos:R:3 gdb_92977=T pbc="F F F"
C       -0.11070000       1.50730000       0.07320000
C        0.05110000      -0.01720000       0.08090000
C        0.83420000      -0.49730000      -1.17580000
C        2.24910000      -0.64350000      -0.66950000
C        2.30000000      -0.64640000       0.65990000
C        0.92190000      -0.52940000       1.27180000
N        0.89340000       0.34720000       2.44120000
C       -0.15430000       0.07880000       3.42190000
C        1.26310000      -0.26900000       3.71070000
H        0.86270000       2.00470000       0.02630000
H       -0.69620000       1.81570000      -0.79970000
H       -0.61890000       1.86520000       0.97110000
H       -0.94260000      -0.47520000       0.11680000
H        0.45470000      -1.45960000      -1.54780000
H        0.74760000       0.20930000      -2.00990000
H        3.10080000      -0.76370000      -1.33050000
H        3.19110000      -0.76320000       1.26630000
H        0.57470000      -1.54430000       1.55890000
H       -0.61480000       0.95110000       3.87690000
H       -0.83670000      -0.74740000       3.22580000
H        1.52260000      -1.32710000       3.71070000
H        1.85870000       0.34510000       4.38000000
