19
Properties=species:S:1:pos:R:3 gdb_40594=T pbc="F F F"
C        0.29950000       1.53960000       0.23130000
N        1.14560000       0.50330000      -0.38950000
C       -0.23300000       0.17050000       0.00770000
C       -0.45630000      -0.78790000       1.14560000
C        0.10640000      -2.21170000       1.16800000
C        1.49060000      -1.66870000       1.64410000
C        1.54300000      -2.57340000       2.87820000
C        0.08060000      -2.15460000       2.72410000
N        0.48500000      -0.70130000       2.34700000
H        0.60630000       1.82330000       1.23290000
H       -0.07730000       2.34910000      -0.38790000
H        1.18940000       0.64500000      -1.39480000
H       -0.96470000       0.06460000      -0.79340000
H       -1.50500000      -0.70320000       1.46590000
H       -0.09820000      -3.07220000       0.52090000
H        2.29180000      -1.26660000       1.03140000
H        1.77520000      -3.62820000       2.70990000
H        2.07120000      -2.17480000       3.74860000
H       -0.77750000      -2.32700000       3.37780000
