14
Properties=species:S:1:pos:R:3 gdb_10380=T pbc="F F F"
O       -0.79310000       0.79680000       0.45940000
C        0.19750000       0.86950000      -0.21500000
C        1.33110000       1.88150000       0.01440000
C        1.32030000       2.55670000       1.40540000
C        2.52900000       1.64990000       1.70290000
O        2.51230000       1.09880000       0.35840000
C        1.50040000       2.71030000      -1.16450000
C        1.59410000       3.37550000      -2.16190000
H        0.41010000       0.16770000      -1.04810000
H        1.53140000       3.62450000       1.38670000
H        0.40910000       2.35700000       1.96850000
H        3.47380000       2.16400000       1.90540000
H        2.36920000       0.87250000       2.45740000
H        1.69190000       3.97280000      -3.03520000
