18
Properties=species:S:1:pos:R:3 gdb_74338=T pbc="F F F"
C        0.20640000       1.49310000       0.03360000
C       -0.00970000       0.01860000       0.04270000
N       -1.11090000      -0.58400000      -0.16310000
C       -0.83550000      -2.02580000      -0.04770000
C        0.68640000      -2.10140000       0.26350000
O        1.10580000      -0.72010000       0.29350000
C       -1.69500000      -2.65020000       1.02880000
C       -2.94680000      -3.34290000       0.71780000
O       -1.75770000      -4.07870000       1.02410000
H        0.93860000       1.76210000      -0.73420000
H       -0.73630000       2.00180000      -0.16380000
H        0.61020000       1.82160000       0.99620000
H       -1.07190000      -2.52330000      -0.99520000
H        0.90530000      -2.55250000       1.23620000
H        1.26200000      -2.62180000      -0.50560000
H       -1.58130000      -2.20560000       2.01950000
H       -3.73520000      -3.39680000       1.46640000
H       -3.28130000      -3.40400000      -0.31680000
