18
Properties=species:S:1:pos:R:3 gdb_66599=T pbc="F F F"
C        0.03720000       1.51550000      -0.16140000
C        0.12610000       0.03000000       0.01670000
C        0.78370000      -0.90920000      -0.92570000
C        0.86350000      -2.16240000      -0.05600000
C        1.00800000      -1.69870000       1.36190000
C        0.12130000      -0.63990000       1.40090000
C       -1.19100000      -1.48180000       1.38290000
C       -0.80680000      -2.05800000      -0.05170000
N       -0.71080000      -0.82020000      -0.90060000
H        0.92610000       2.00990000       0.24410000
H       -0.05390000       1.77190000      -1.22120000
H       -0.83850000       1.91530000       0.36130000
H        1.37060000      -0.66490000      -1.80380000
H        1.34780000      -3.06970000      -0.41180000
H        1.01450000      -2.44500000       2.15650000
H       -1.26660000      -2.23800000       2.16580000
H       -2.12310000      -0.91030000       1.32010000
H       -1.41600000      -2.83470000      -0.52340000
