16
Properties=species:S:1:pos:R:3 gdb_82689=T pbc="F F F"
O        0.13440000       1.47460000       0.24160000
C       -0.02710000       0.08910000       0.10100000
C        0.15810000      -0.73430000       1.37760000
C       -0.83810000      -0.16680000       2.40550000
C       -1.88150000      -0.73820000       1.46270000
N       -0.93400000      -1.73490000       0.86890000
C       -1.42120000      -0.53960000       0.04670000
C       -2.27130000      -0.65290000      -1.08720000
C       -2.97040000      -0.70230000      -2.06560000
H       -0.00160000       1.88900000      -0.61650000
H        0.58090000      -0.32120000      -0.71520000
H        1.13620000      -1.11170000       1.66460000
H       -0.81030000      -0.73610000       3.33770000
H       -0.81870000       0.90640000       2.60560000
H       -2.91290000      -1.00170000       1.66770000
H       -3.59270000      -0.76120000      -2.92400000
