19
Properties=species:S:1:pos:R:3 gdb_51472=T pbc="F F F"
O       -0.43240000       0.17520000      -0.05760000
C        0.00520000       1.29340000       0.02930000
C        1.42440000       1.70090000      -0.30200000
C        1.45420000       2.88050000      -1.26230000
C        1.29810000       4.32970000      -0.84670000
C        1.57780000       4.69920000       0.59940000
O        2.81790000       4.08160000       0.93900000
C        3.60150000       3.93440000      -0.24510000
C        2.61810000       3.83750000      -1.39650000
H       -0.64100000       2.13520000       0.37430000
H        1.91680000       1.97650000       0.63840000
H        1.94290000       0.83310000      -0.72130000
H        0.97770000       2.66040000      -2.21510000
H        0.64590000       4.97810000      -1.42010000
H        1.63950000       5.79490000       0.69540000
H        0.83250000       4.33830000       1.31730000
H        4.26320000       4.80220000      -0.39380000
H        4.22920000       3.04720000      -0.10610000
H        2.96340000       4.11010000      -2.38690000
