18
Properties=species:S:1:pos:R:3 gdb_39752=T pbc="F F F"
C        0.02400000       1.44510000      -0.00760000
O        1.21560000       0.63950000       0.01200000
C       -0.04810000      -0.01210000       0.00690000
C       -0.58600000      -0.91680000       1.08720000
C       -1.34170000      -1.69160000       0.04070000
C       -0.54510000      -0.97450000      -1.09080000
C        0.57780000      -1.95520000      -1.44360000
C        0.88030000      -2.60150000      -0.06630000
N       -0.29140000      -2.33360000       0.80600000
H       -0.16900000       2.01080000       0.90370000
H       -0.15900000       1.98760000      -0.93460000
H       -0.84870000      -0.64490000       2.10360000
H       -2.35780000      -2.06420000       0.03120000
H       -1.08220000      -0.53220000      -1.92930000
H        0.23460000      -2.69700000      -2.17240000
H        1.44810000      -1.44070000      -1.85900000
H        1.00790000      -3.68490000      -0.13790000
H        1.77800000      -2.18400000       0.39660000
