12
Properties=species:S:1:pos:R:3 gdb_130555=T pbc="F F F"
O        0.00580000      -0.03260000       0.00400000
C       -0.00260000       1.17340000       0.00760000
C        1.17540000       2.00050000       0.00120000
C        2.21280000       2.60680000      -0.00480000
N       -1.22910000       1.88030000       0.01840000
C       -2.48690000       1.34280000       0.02600000
N       -3.38310000       2.29590000       0.03510000
C       -2.61460000       3.43620000       0.03280000
N       -1.31540000       3.24320000       0.02280000
H        3.12270000       3.15680000      -0.01000000
H       -2.65490000       0.27800000       0.02430000
H       -3.04080000       4.42830000       0.03860000
