22
Properties=species:S:1:pos:R:3 gdb_32889=T pbc="F F F"
C       -0.01490000       1.61430000       0.09900000
C        0.00550000       0.08440000       0.13360000
C       -1.37850000      -0.54240000      -0.11950000
C       -1.37670000      -2.04320000      -0.07130000
C       -1.52190000      -2.90030000      -1.14110000
N       -1.46010000      -4.19640000      -0.68750000
C       -1.47920000      -5.37880000      -1.52010000
C       -1.26530000      -4.17860000       0.67060000
C       -1.21200000      -2.86770000       1.08230000
H        0.97950000       2.03260000       0.28450000
H       -0.35500000       1.98500000      -0.87480000
H       -0.69320000       2.01930000       0.85880000
H        0.70960000      -0.29860000      -0.61530000
H        0.38180000      -0.26000000       1.10480000
H       -2.08440000      -0.14360000       0.62230000
H       -1.74810000      -0.20880000      -1.09750000
H       -1.67020000      -2.69310000      -2.19010000
H       -0.48320000      -5.62350000      -1.90900000
H       -1.84410000      -6.22950000      -0.93970000
H       -2.15450000      -5.22620000      -2.36600000
H       -1.18800000      -5.10140000       1.22430000
H       -1.09200000      -2.53030000       2.10130000
