18
Properties=species:S:1:pos:R:3 gdb_2371=T pbc="F F F"
C        0.47060000      -2.39450000      -1.34800000
C        0.10300000      -1.66820000      -0.05260000
O        0.92540000      -0.51770000       0.15060000
C       -1.36760000      -1.29670000      -0.03000000
C       -2.38630000      -2.18010000       0.61050000
N       -2.07030000      -0.87750000       1.17860000
C       -1.35920000      -0.83650000       2.45020000
H        1.54230000      -2.60900000      -1.36740000
H       -0.08040000      -3.33550000      -1.44370000
H        0.22990000      -1.77570000      -2.22130000
H        0.33540000      -2.31870000       0.79630000
H        0.71450000       0.11900000      -0.54180000
H       -1.67180000      -0.72880000      -0.91310000
H       -3.37790000      -2.29600000       0.18030000
H       -2.01170000      -3.06430000       1.12800000
H       -0.73850000      -1.72240000       2.65550000
H       -0.71020000       0.04260000       2.47080000
H       -2.09510000      -0.75060000       3.25590000
