20
Properties=species:S:1:pos:R:3 gdb_63351=T pbc="F F F"
C        0.00470000       1.55190000      -0.00600000
C       -0.03590000       0.01440000       0.02340000
C       -1.50790000      -0.45810000       0.05390000
C        0.67330000      -0.53980000      -1.23490000
C        1.01470000      -2.02340000      -1.18410000
O        1.01860000      -2.75750000      -2.15040000
N        1.39860000      -2.46350000       0.06590000
C        1.32150000      -1.68290000       1.22420000
C        0.68500000      -0.51140000       1.24890000
H        1.03530000       1.92110000      -0.00240000
H       -0.49310000       1.93920000      -0.90160000
H       -0.50620000       1.97130000       0.86760000
H       -2.05670000      -0.07370000      -0.81370000
H       -1.57550000      -1.55030000       0.04150000
H       -2.01060000      -0.10210000       0.95870000
H        0.08500000      -0.36890000      -2.13960000
H        1.63030000      -0.01570000      -1.36680000
H        1.71600000      -3.41950000       0.11570000
H        1.81440000      -2.10850000       2.09060000
H        0.64460000       0.05740000       2.17080000
