16
Properties=species:S:1:pos:R:3 gdb_14263=T pbc="F F F"
C       -0.06360000       1.56870000      -0.00980000
C        1.48190000       1.47720000       0.00800000
O        1.38410000       0.11180000       0.50340000
C        0.01550000       0.02260000       0.01500000
C       -0.04650000      -0.63460000      -1.34300000
C        0.77160000      -0.32470000      -2.36060000
C        1.81170000       0.70710000      -2.36560000
C        2.13300000       1.52750000      -1.35340000
H       -0.45420000       1.96690000       0.92750000
H       -0.54300000       2.04790000      -0.86360000
H        2.01070000       2.11350000       0.72330000
H       -0.62150000      -0.49760000       0.73580000
H       -0.79110000      -1.41350000      -1.48240000
H        0.65660000      -0.87430000      -3.29140000
H        2.35770000       0.81340000      -3.29950000
H        2.91710000       2.26520000      -1.50010000
