19
Properties=species:S:1:pos:R:3 gdb_108522=T pbc="F F F"
O        0.04380000       1.40250000      -0.19360000
C        0.06190000       0.02510000       0.13110000
C       -1.34620000      -0.53930000       0.11200000
C       -2.29710000      -0.09090000       1.21750000
C       -3.33440000      -1.22310000       1.23030000
O       -2.60580000      -2.41260000       0.90640000
C       -1.58830000      -2.06890000      -0.00510000
C       -2.03750000      -1.75150000      -1.44700000
O       -1.92610000      -0.32640000      -1.21480000
H       -0.44030000       1.46620000      -1.02680000
H        0.69350000      -0.54310000      -0.57110000
H        0.50340000      -0.06720000       1.12900000
H       -1.75960000      -0.04700000       2.17030000
H       -2.72780000       0.89060000       1.01240000
H       -3.80910000      -1.38330000       2.20100000
H       -4.12030000      -1.03620000       0.48500000
H       -0.75850000      -2.76710000       0.11830000
H       -1.35020000      -2.09180000      -2.23110000
H       -3.05980000      -2.05500000      -1.69700000
