19
Properties=species:S:1:pos:R:3 gdb_64305=T pbc="F F F"
C        0.34740000       1.53530000      -0.18840000
C       -0.03810000       0.06220000       0.02260000
O       -1.44610000      -0.05960000       0.17700000
C        0.41430000      -0.84990000      -1.14710000
C        1.73080000      -1.52300000      -0.68310000
C        1.67650000      -1.39050000       0.81430000
C        0.71620000      -0.54220000       1.20510000
C        0.38520000      -0.21760000       2.58870000
O       -0.53860000       0.50870000       2.90780000
H        1.41700000       1.64450000      -0.39910000
H       -0.21910000       1.93980000      -1.03230000
H        0.11260000       2.12610000       0.70190000
H       -1.66220000       0.37280000       1.01480000
H       -0.36400000      -1.60470000      -1.28490000
H        0.52350000      -0.30290000      -2.08640000
H        1.82030000      -2.56550000      -1.00790000
H        2.62050000      -1.00870000      -1.07380000
H        2.35110000      -1.91570000       1.48460000
H        1.02750000      -0.69030000       3.36280000
