12
Properties=species:S:1:pos:R:3 gdb_24010=T pbc="F F F"
N        0.02180000      -1.14480000      -0.00330000
C        0.01790000       0.01280000       0.00300000
C        0.00460000       1.42860000       0.01080000
C       -1.12120000       2.22580000       0.02930000
N       -0.70960000       3.52680000       0.03110000
C        0.65290000       3.60020000       0.01430000
C        1.14330000       2.31080000       0.00120000
C        2.51080000       1.94400000      -0.01810000
N        3.63070000       1.65140000      -0.03390000
H       -2.16350000       1.95490000       0.04110000
H       -1.32580000       4.32240000       0.04320000
H        1.17570000       4.54180000       0.01280000
