21
Properties=species:S:1:pos:R:3 gdb_115907=T pbc="F F F"
O       -0.07710000       1.47580000       0.16150000
C        0.01980000       0.05650000       0.17460000
C       -1.37950000      -0.51600000      -0.05060000
C       -1.96930000      -0.13210000      -1.43810000
C       -1.75490000      -1.23400000      -2.50960000
C       -1.66460000      -2.60190000      -1.83660000
C       -2.57230000      -2.70780000      -0.59130000
C       -1.35600000      -2.04220000       0.08340000
O       -0.49470000      -2.58240000      -0.96370000
H        0.81410000       1.83580000       0.15730000
H        0.69560000      -0.31010000      -0.60960000
H        0.41140000      -0.30070000       1.14170000
H       -2.02530000      -0.10280000       0.73540000
H       -3.04400000       0.03940000      -1.32270000
H       -1.54690000       0.82270000      -1.75940000
H       -2.56880000      -1.21260000      -3.24410000
H       -0.82140000      -1.07860000      -3.06150000
H       -1.63380000      -3.43570000      -2.54350000
H       -3.53240000      -2.18770000      -0.58720000
H       -2.69870000      -3.74200000      -0.26780000
H       -1.04860000      -2.38110000       1.07780000
