16
Properties=species:S:1:pos:R:3 gdb_43155=T pbc="F F F"
O        0.00470000      -0.04240000       0.07680000
C        0.00060000       1.14840000       0.05650000
C       -1.06840000       2.27800000      -0.02050000
C       -0.68910000       3.04380000       1.26090000
O        0.76440000       3.01560000       1.18310000
C        1.01140000       2.32140000      -0.05180000
C       -0.04390000       2.90450000      -1.00210000
C       -0.09490000       2.97180000      -2.47100000
N       -0.02240000       4.20280000      -1.63960000
H       -2.11670000       2.10500000      -0.25130000
H       -1.03600000       4.08380000       1.26570000
H       -1.02540000       2.54570000       2.17650000
H        2.07480000       2.24370000      -0.25630000
H        0.79480000       2.77360000      -3.06200000
H       -1.03320000       2.72890000      -2.96340000
H       -0.93820000       4.64490000      -1.58620000
