16
Properties=species:S:1:pos:R:3 gdb_129750=T pbc="F F F"
N        0.15070000       1.37290000       0.58780000
C        0.04330000       0.07420000       0.07410000
C       -1.06450000      -0.64620000      -0.27940000
O       -0.68770000      -1.90270000      -0.63330000
N        0.68750000      -2.02370000      -0.52660000
C        1.10710000      -0.85660000      -0.10610000
C       -2.49740000      -0.33300000      -0.31500000
C       -3.40570000      -1.01710000      -1.28000000
N       -3.49680000      -1.31950000       0.15350000
H        0.96520000       1.86460000       0.24300000
H       -0.67120000       1.93760000       0.41970000
H        2.16430000      -0.70330000       0.06240000
H       -2.73000000       0.68750000      -0.02130000
H       -4.25270000      -0.47450000      -1.69050000
H       -2.96030000      -1.75330000      -1.94220000
H       -3.02050000      -2.19910000       0.34330000
