23
Properties=species:S:1:pos:R:3 gdb_101736=T pbc="F F F"
C       -0.56400000       1.33670000      -0.04690000
C       -0.00610000      -0.08670000      -0.06550000
C        0.83780000      -0.36530000      -1.31240000
O        1.99240000       0.45090000      -1.35040000
O        0.88860000      -0.31590000       1.02860000
C        0.29080000      -0.60510000       2.26550000
C       -0.27310000      -2.03380000       2.51800000
C        0.37020000      -1.96830000       3.93150000
C        1.28890000      -0.82460000       3.41890000
H        0.24860000       2.05240000      -0.19290000
H       -1.29220000       1.46860000      -0.85390000
H       -1.06890000       1.56120000       0.89670000
H       -0.82790000      -0.81840000      -0.02860000
H        1.10330000      -1.43380000      -1.32680000
H        0.25950000      -0.14650000      -2.21620000
H        2.41390000       0.34110000      -0.48920000
H       -0.45560000       0.15740000       2.52940000
H       -1.35170000      -2.19160000       2.44660000
H        0.24180000      -2.75590000       1.87730000
H       -0.33800000      -1.61740000       4.68690000
H        0.85430000      -2.87220000       4.30480000
H        2.22920000      -1.21570000       3.01980000
H        1.50300000       0.01680000       4.08130000
