16
Properties=species:S:1:pos:R:3 gdb_30030=T pbc="F F F"
C        0.00080000       1.45390000       0.02010000
N       -0.00810000       0.01160000       0.02030000
C       -0.05970000      -0.82420000      -1.08510000
N       -0.05390000      -2.10320000      -0.82360000
C        0.00690000      -2.15260000       0.56380000
C        0.04870000      -3.04270000       1.62050000
N        0.10190000      -2.27100000       2.75880000
C        0.09640000      -0.91310000       2.48400000
C        0.03690000      -0.83690000       1.11120000
H        0.91430000       1.84460000       0.48350000
H       -0.04370000       1.81190000      -1.01100000
H       -0.86240000       1.85540000       0.56380000
H       -0.10140000      -0.39540000      -2.07830000
H        0.04550000      -4.11800000       1.67310000
H        0.14170000      -2.64870000       3.68910000
H        0.13480000      -0.18230000       3.27290000
