23
Properties=species:S:1:pos:R:3 gdb_115204=T pbc="F F F"
C       -0.13590000       1.57020000       0.11950000
C       -0.00180000       0.04710000       0.02030000
C        0.72910000      -0.45880000      -1.23500000
C        2.20960000      -0.04120000      -1.27380000
C        2.92950000      -0.55240000      -2.53760000
C        2.74930000      -2.05180000      -2.73080000
O        3.67380000      -2.79750000      -2.95730000
C        1.31010000      -2.53540000      -2.61600000
C        0.62190000      -1.98890000      -1.35080000
H        0.83600000       2.06490000       0.20910000
H       -0.63770000       1.98090000      -0.76410000
H       -0.72680000       1.85240000       0.99630000
H        0.51260000      -0.33650000       0.91220000
H       -1.00500000      -0.39790000       0.03750000
H        0.23150000      -0.01910000      -2.11440000
H        2.30870000       1.04740000      -1.22230000
H        2.71430000      -0.44190000      -0.38360000
H        2.50090000      -0.05300000      -3.41880000
H        3.99890000      -0.32890000      -2.51860000
H        0.76890000      -2.17320000      -3.50210000
H        1.30490000      -3.62760000      -2.64820000
H        1.08100000      -2.44710000      -0.46380000
H       -0.43040000      -2.29500000      -1.34590000
