11
Properties=species:S:1:pos:R:3 gdb_131926=T pbc="F F F"
N       -0.16240000       1.23230000       0.01070000
C       -0.05140000      -0.00920000       0.00290000
O        1.11730000      -0.77310000      -0.00730000
C        0.74190000      -2.08270000      -0.01310000
C       -0.59110000      -2.13060000      -0.00670000
O       -1.11750000      -0.87020000       0.00330000
N       -1.46390000      -3.26070000      -0.00890000
O       -0.90780000      -4.35610000      -0.01800000
O       -2.66530000      -3.04670000      -0.00170000
H        0.74260000       1.69410000       0.00900000
H        1.49860000      -2.84630000      -0.02130000
