18
Properties=species:S:1:pos:R:3 gdb_86770=T pbc="F F F"
C        0.02990000       1.45740000      -0.07820000
N       -0.00020000       0.01920000      -0.07030000
C       -1.09970000      -0.94450000      -0.09260000
C       -0.02640000      -2.07370000      -0.03870000
C        0.02290000      -3.03340000      -1.23630000
C        1.12760000      -3.98140000      -1.16360000
C        2.02770000      -4.77300000      -1.08610000
C        1.00720000      -0.91480000      -0.03130000
O        2.20490000      -0.80640000      -0.00900000
H        1.07830000       1.76490000      -0.05690000
H       -0.44020000       1.86640000      -0.98110000
H       -0.47960000       1.87740000       0.79810000
H       -1.76770000      -0.88570000       0.77440000
H       -1.69770000      -0.91750000      -1.01220000
H       -0.02920000      -2.63450000       0.89880000
H       -0.92540000      -3.58450000      -1.28870000
H        0.09200000      -2.45260000      -2.16550000
H        2.83570000      -5.45890000      -1.02390000
