22
Properties=species:S:1:pos:R:3 gdb_113832=T pbc="F F F"
C        2.57600000       1.69070000       2.20110000
C        2.07710000       0.24790000       2.21850000
N        0.61530000       0.22750000       2.20900000
C       -0.06150000       0.09930000       0.92860000
C       -0.10820000      -1.01540000       1.92360000
C        0.59530000      -2.29760000       1.62650000
O        0.85070000      -3.17800000       2.73450000
C       -0.04270000      -3.62520000       1.71160000
C       -1.47770000      -3.88020000       2.09830000
H        3.66910000       1.72180000       2.24550000
H        2.25960000       2.20260000       1.28610000
H        2.17430000       2.24560000       3.05330000
H        2.52030000      -0.30020000       1.37080000
H        2.40850000      -0.25640000       3.13320000
H       -0.92980000       0.73290000       0.76690000
H        0.55360000      -0.05970000       0.04160000
H       -1.00150000      -1.12500000       2.53250000
H        1.43850000      -2.21180000       0.94060000
H        0.38680000      -4.39930000       1.07050000
H       -1.86560000      -3.10630000       2.76270000
H       -2.11150000      -3.92940000       1.20630000
H       -1.55790000      -4.84060000       2.61830000
