21
Properties=species:S:1:pos:R:3 gdb_39215=T pbc="F F F"
C       -0.11780000       1.44530000       0.10650000
C        1.27230000       0.84390000       0.06500000
C        2.14530000       0.85690000       1.32290000
C        2.53270000      -0.51480000       1.90440000
C        1.29920000      -1.37570000       2.25120000
C        0.70060000      -2.19790000       1.09050000
C       -0.30780000      -1.03370000       1.00290000
O        0.08270000      -0.57520000       2.32280000
C        0.04540000      -0.03740000      -0.07590000
H       -0.46080000       1.78570000       1.07820000
H       -0.46980000       2.03600000      -0.73240000
H        1.82190000       0.99660000      -0.86000000
H        3.06370000       1.41260000       1.10210000
H        1.63100000       1.41230000       2.11130000
H        3.17210000      -1.07340000       1.20920000
H        3.13280000      -0.34500000       2.80610000
H        1.45220000      -1.92270000       3.18670000
H        1.33270000      -2.37490000       0.21780000
H        0.25120000      -3.13600000       1.42240000
H       -1.37170000      -1.29660000       0.97610000
H       -0.14770000      -0.42370000      -1.07530000
