23
Properties=species:S:1:pos:R:3 gdb_72152=T pbc="F F F"
C       -0.01670000       1.49490000       0.00320000
C       -0.02200000      -0.01950000      -0.04040000
C        0.60330000      -0.72250000      -1.27500000
C        0.61420000      -2.11600000      -0.60620000
C        1.65340000      -1.78520000       0.49190000
C        0.71200000      -0.78150000       1.19870000
C       -0.34590000      -1.81170000       1.65990000
C       -0.78560000      -2.13460000       0.21160000
C       -1.39040000      -0.74900000      -0.11030000
H        1.00500000       1.89170000       0.00700000
H       -0.53200000       1.91800000      -0.86720000
H       -0.52100000       1.87130000       0.90060000
H       -0.03030000      -0.62710000      -2.16070000
H        1.60900000      -0.38550000      -1.54110000
H        0.80410000      -2.98210000      -1.24000000
H        1.93190000      -2.61660000       1.14450000
H        2.56950000      -1.36050000       0.07410000
H        1.14460000      -0.12450000       1.95410000
H        0.10210000      -2.64080000       2.21340000
H       -1.16790000      -1.41000000       2.25750000
H       -1.41380000      -3.01160000       0.05560000
H       -2.12260000      -0.43510000       0.63880000
H       -1.85260000      -0.65130000      -1.09620000
