18
Properties=species:S:1:pos:R:3 gdb_122620=T pbc="F F F"
O       -0.10060000       1.33400000       0.34770000
C        0.04820000       0.01620000      -0.14340000
C       -1.28810000      -0.69890000      -0.24250000
O       -2.09300000       0.07320000      -1.13730000
C       -3.40390000      -0.39270000      -1.25600000
C       -4.24050000       0.36570000      -2.32200000
N       -4.43180000      -0.92580000      -2.99190000
C       -3.61480000      -1.65190000      -2.16160000
O       -3.22050000      -2.78730000      -2.17310000
H       -0.79080000       1.73830000      -0.19050000
H        0.53530000       0.00570000      -1.13140000
H        0.69760000      -0.51990000       0.55610000
H       -1.17060000      -1.72330000      -0.61730000
H       -1.77120000      -0.73720000       0.74620000
H       -3.89490000      -0.48280000      -0.27630000
H       -5.16230000       0.83500000      -1.96730000
H       -3.64050000       1.08370000      -2.88830000
H       -4.86870000      -1.16460000      -3.86990000
