20
Properties=species:S:1:pos:R:3 gdb_104123=T pbc="F F F"
C        0.04980000       1.56090000       0.07620000
C       -0.07690000       0.03480000       0.07350000
C       -1.51620000      -0.51580000      -0.08000000
C       -2.11570000      -0.20170000      -1.45220000
C       -1.54150000      -2.03510000       0.22710000
O       -1.82370000      -2.14050000       1.62590000
C       -2.38960000      -0.97100000       2.06120000
O       -2.80380000      -0.80810000       3.17430000
N       -2.39390000      -0.08230000       1.00690000
H        1.09310000       1.85500000       0.22220000
H       -0.28680000       2.00740000      -0.86450000
H       -0.52580000       2.01290000       0.89120000
H        0.53240000      -0.38240000      -0.73820000
H        0.33660000      -0.36240000       1.00850000
H       -1.50640000      -0.64200000      -2.24870000
H       -3.13010000      -0.60180000      -1.52580000
H       -2.16540000       0.87620000      -1.63080000
H       -2.33310000      -2.54330000      -0.33600000
H       -0.58550000      -2.52380000       0.02650000
H       -2.52750000       0.89090000       1.22970000
