16
Properties=species:S:1:pos:R:3 gdb_34077=T pbc="F F F"
C       -0.03330000      -1.21010000       0.00890000
C       -0.01550000      -0.00870000      -0.02250000
C        0.01220000       1.43340000      -0.03190000
C       -0.89120000       2.20250000       1.00750000
C       -1.29650000       3.09100000      -0.15080000
C       -0.16210000       3.45660000      -1.07440000
C        1.23870000       3.30690000      -0.59970000
C        1.37220000       2.10470000      -0.04230000
N       -0.78640000       2.11610000      -1.17860000
H       -0.05030000      -2.27180000       0.02530000
H       -1.72970000       1.57520000       1.31380000
H       -0.39990000       2.63280000       1.88430000
H       -2.26740000       3.56600000      -0.25360000
H       -0.40020000       4.13330000      -1.88930000
H        1.99180000       4.07910000      -0.68330000
H        2.23620000       1.68890000       0.45810000
