19
Properties=species:S:1:pos:R:3 gdb_71830=T pbc="F F F"
C       -0.09090000       1.47550000      -0.07490000
C       -0.06470000      -0.01370000       0.03830000
O       -0.08770000      -0.73150000      -1.17820000
C       -0.55120000      -1.94150000      -0.43840000
C        0.70150000      -2.73040000      -0.16300000
C        1.42790000      -2.02560000       0.71610000
C        0.66720000      -0.84050000       1.19050000
C        1.04000000      -0.14000000       2.47420000
C       -0.78810000      -1.06090000       0.81780000
H        0.76160000       1.81390000      -0.67420000
H       -1.00610000       1.80950000      -0.57440000
H       -0.03380000       1.95800000       0.90290000
H       -1.38130000      -2.41390000      -0.96130000
H        1.02490000      -3.58400000      -0.74390000
H        2.45590000      -2.21870000       1.00140000
H        2.03560000       0.31340000       2.41210000
H        0.33080000       0.65410000       2.72630000
H        1.04690000      -0.84540000       3.31320000
H       -1.63200000      -1.04200000       1.49780000
