17
Properties=species:S:1:pos:R:3 gdb_43633=T pbc="F F F"
O        0.23610000       0.20650000      -0.53070000
C        0.02490000       1.24450000       0.00520000
C       -1.17830000       2.12260000       0.35340000
C       -0.11350000       3.05050000       0.97080000
O        0.93980000       2.10090000       0.56780000
C        0.09960000       4.41090000       0.35480000
C       -0.81150000       5.52690000       0.91950000
O        0.29450000       6.14670000       1.60080000
C        1.23860000       5.24750000       0.98090000
H       -1.71290000       2.51510000      -0.51400000
H       -1.88610000       1.66100000       1.04320000
H       -0.14100000       3.11090000       2.06320000
H        0.12620000       4.32870000      -0.73440000
H       -1.25280000       6.18520000       0.16060000
H       -1.60010000       5.20880000       1.61370000
H        1.86910000       4.73420000       1.71610000
H        1.88100000       5.76180000       0.25590000
