14
Properties=species:S:1:pos:R:3 gdb_14899=T pbc="F F F"
N       -0.13850000      -1.19690000      -0.16340000
C       -0.06180000      -0.04750000      -0.07780000
C        0.00410000       1.42180000       0.03850000
C       -0.69720000       1.92230000       1.30880000
C        0.12530000       1.50140000       2.52920000
N        1.54990000       1.78090000       2.37400000
C        2.00970000       1.93030000       1.21100000
O        1.37030000       1.84610000       0.00260000
H       -0.45650000       1.84800000      -0.85750000
H       -0.74960000       3.01390000       1.24580000
H       -1.71930000       1.53620000       1.34890000
H       -0.22800000       2.02400000       3.42340000
H        0.00100000       0.42930000       2.72710000
H        3.05630000       2.17050000       1.03860000
