17
Properties=species:S:1:pos:R:3 gdb_106883=T pbc="F F F"
O        0.26280000       1.20580000       0.27830000
C        0.05090000      -0.16110000      -0.05020000
C       -1.40570000      -0.51920000      -0.07760000
C       -2.19040000      -0.90920000       1.14570000
C       -2.08210000      -1.90050000       0.01680000
O       -3.00630000      -1.60210000      -1.02420000
C       -2.37740000      -0.30650000      -1.23940000
C       -1.46490000      -3.23170000       0.11460000
O       -0.65100000      -3.53190000       0.95830000
H       -0.06650000       1.34470000       1.17260000
H        0.49320000      -0.29420000      -1.04310000
H        0.57750000      -0.83800000       0.63840000
H       -1.59320000      -1.16430000       2.01570000
H       -3.16960000      -0.48200000       1.34230000
H       -3.09230000       0.51880000      -1.15750000
H       -1.88190000      -0.27800000      -2.21600000
H       -1.79620000      -3.94080000      -0.67400000
