15
Properties=species:S:1:pos:R:3 gdb_25683=T pbc="F F F"
C       -0.08150000       1.45820000      -0.00290000
C       -0.00770000       0.00680000       0.01530000
C        0.06390000      -1.19780000       0.03220000
C        0.11460000      -2.60270000       0.04620000
C        1.14780000      -3.44830000       0.22860000
O        0.71410000      -4.75190000       0.15820000
C       -0.65460000      -4.74730000      -0.07930000
N       -1.41430000      -5.75110000      -0.20740000
N       -1.01030000      -3.42030000      -0.14600000
H        0.55440000       1.87950000      -0.78950000
H       -1.10720000       1.79420000      -0.18870000
H        0.24070000       1.88550000       0.95320000
H        2.19440000      -3.28340000       0.40960000
H       -0.88980000      -6.61620000      -0.11320000
H       -1.95060000      -3.11080000      -0.31030000
