18
Properties=species:S:1:pos:R:3 gdb_117865=T pbc="F F F"
C       -0.03010000       1.57370000      -0.03850000
C        0.00840000       0.04380000      -0.01530000
C        0.70080000      -0.50980000       1.23400000
C        0.79160000      -2.04900000       1.22540000
O        1.49950000      -2.55460000       0.10110000
C        1.36420000      -2.54990000       2.47980000
C        1.87360000      -2.94140000       3.50370000
C        2.44380000      -3.38770000       4.66130000
N        2.93010000      -3.76440000       5.64670000
H        0.98040000       1.99670000      -0.02390000
H       -0.53080000       1.94110000      -0.93920000
H       -0.56790000       1.97310000       0.82830000
H       -1.01440000      -0.35240000      -0.06310000
H        0.52410000      -0.33510000      -0.90370000
H        1.71750000      -0.10250000       1.32000000
H        0.16610000      -0.19760000       2.13930000
H       -0.22070000      -2.46070000       1.12320000
H        2.41900000      -2.27400000       0.17820000
