21
Properties=species:S:1:pos:R:3 gdb_66182=T pbc="F F F"
C        0.15830000       1.36290000       0.20510000
C       -0.09800000      -0.15540000       0.14280000
C        0.50860000      -0.78500000      -1.15450000
C        1.86440000      -1.41150000      -0.74130000
C        1.73580000      -1.54040000       0.75730000
C        0.68340000      -0.87700000       1.22950000
C       -1.58190000      -0.48350000       0.24200000
C       -2.59670000       0.35930000       0.88820000
O       -2.49760000       0.29200000      -0.53690000
H        1.20020000       1.57910000      -0.04730000
H       -0.49040000       1.88870000      -0.50160000
H       -0.02360000       1.76370000       1.20760000
H       -0.15790000      -1.57250000      -1.52050000
H        0.60310000      -0.04960000      -1.95730000
H        2.04710000      -2.37140000      -1.23770000
H        2.71700000      -0.76920000      -1.00220000
H        2.45510000      -2.08120000       1.36320000
H        0.40960000      -0.79260000       2.27650000
H       -1.78710000      -1.55610000       0.20780000
H       -3.48440000      -0.10510000       1.31630000
H       -2.32070000       1.31530000       1.32730000
