20
Properties=species:S:1:pos:R:3 gdb_12565=T pbc="F F F"
C        0.02070000       1.55710000       0.04980000
C       -0.01520000       0.02310000      -0.00660000
C        0.63820000      -0.48790000      -1.30460000
C        0.25910000      -1.91960000      -1.71150000
O        0.08890000      -2.84730000      -0.64620000
C        0.98050000      -2.77250000       0.43020000
O        0.53050000      -1.93250000       1.45720000
C        0.69460000      -0.54380000       1.23650000
H        1.05140000       1.93070000       0.01760000
H       -0.51420000       1.99330000      -0.79930000
H       -0.44150000       1.93540000       0.96730000
H       -1.06050000      -0.30930000       0.02710000
H        0.36330000       0.16370000      -2.14330000
H        1.72750000      -0.39470000      -1.20480000
H       -0.70900000      -1.91390000      -2.22360000
H        1.00240000      -2.30250000      -2.42810000
H        1.01910000      -3.77370000       0.86710000
H        1.98970000      -2.47450000       0.09500000
H        1.76940000      -0.29460000       1.17420000
H        0.29950000      -0.06620000       2.13860000
