17
Properties=species:S:1:pos:R:3 gdb_39193=T pbc="F F F"
C       -0.05890000       1.49100000       0.05430000
C        1.49010000       1.51740000       0.02510000
O        2.05430000       1.63180000       1.32130000
C        2.80400000       0.45350000       1.62460000
C        2.07640000      -0.70530000       0.91840000
N        0.93470000      -1.17850000       1.72810000
C       -0.12250000      -0.69370000       1.20690000
N       -0.03400000      -0.01840000      -0.02780000
C        1.44210000       0.00610000      -0.29550000
H       -0.51750000       1.89660000       0.95870000
H       -0.52710000       1.92140000      -0.83470000
H        1.96760000       2.20520000      -0.68110000
H        3.83620000       0.54370000       1.25420000
H        2.82090000       0.33700000       2.71040000
H        2.74750000      -1.53170000       0.67620000
H       -1.10430000      -0.80070000       1.66190000
H        1.72350000      -0.33940000      -1.28980000
