20
Properties=species:S:1:pos:R:3 gdb_58790=T pbc="F F F"
C       -0.01360000       1.55030000       0.15300000
C       -0.00380000       0.01770000       0.02280000
C        0.85100000      -0.62550000       1.12190000
C       -1.41440000      -0.51750000      -0.00590000
C       -2.25840000      -0.95870000       1.15060000
C       -1.95020000      -1.94350000       0.01210000
C       -2.81930000      -1.53770000      -1.16340000
O       -3.65910000      -2.05100000      -1.84590000
N       -2.26920000      -0.23700000      -1.17800000
H        1.00540000       1.94800000       0.11440000
H       -0.58260000       2.01550000      -0.65790000
H       -0.46020000       1.86050000       1.10440000
H        0.43890000      -0.23350000      -0.95010000
H        0.48990000      -0.35560000       2.12030000
H        0.85780000      -1.71730000       1.04440000
H        1.88600000      -0.27970000       1.04440000
H       -1.74520000      -1.18200000       2.08110000
H       -3.26830000      -0.57760000       1.27360000
H       -1.44180000      -2.88270000       0.17740000
H       -2.84870000       0.59200000      -1.26070000
