17
Properties=species:S:1:pos:R:3 gdb_35823=T pbc="F F F"
N       -0.30310000      -1.15390000       0.24660000
C       -0.20270000      -0.00970000       0.11960000
C       -0.05120000       1.44290000      -0.06930000
N       -0.76600000       2.17270000       0.99270000
C        0.21260000       2.41590000       2.06600000
C        1.59520000       2.54450000       1.38880000
O        2.55740000       1.54410000       1.78500000
C        2.55320000       0.95350000       0.46650000
C        1.44080000       1.91190000      -0.01290000
H       -0.50120000       1.68150000      -1.03710000
H       -1.08250000       3.05710000       0.61090000
H       -0.08250000       3.29430000       2.64390000
H        0.24570000       1.55410000       2.74150000
H        2.01890000       3.55340000       1.44600000
H        3.51270000       1.10020000      -0.04290000
H        2.31110000      -0.11390000       0.48780000
H        1.68440000       2.52690000      -0.87850000
