18
Properties=species:S:1:pos:R:3 gdb_56555=T pbc="F F F"
C        0.01760000       1.68530000       0.57010000
C       -0.08690000       0.24810000       0.04760000
C        0.75130000      -0.74860000       0.89730000
N        0.89580000      -2.05200000       0.22380000
C        2.07470000      -0.18790000       1.23930000
N        3.14000000       0.18950000       1.48410000
C       -1.58380000      -0.14870000      -0.07490000
N       -1.85000000      -1.47850000      -0.10870000
O       -2.44940000       0.70280000      -0.15300000
H        1.03650000       2.06640000       0.47710000
H       -0.66420000       2.32110000       0.00650000
H       -0.27740000       1.74200000       1.62320000
H        0.32160000       0.21710000      -0.97330000
H        0.21990000      -0.92500000       1.84020000
H        1.46530000      -1.94270000      -0.61160000
H        1.38820000      -2.70410000       0.82750000
H       -1.09480000      -2.15310000      -0.11570000
H       -2.80820000      -1.75660000      -0.24490000
