15
Properties=species:S:1:pos:R:3 gdb_131880=T pbc="F F F"
O       -0.02380000       1.42950000       0.01330000
C       -0.00210000       0.01750000       0.00010000
C       -1.39570000      -0.58030000       0.03540000
O       -2.04680000      -0.16360000      -1.18600000
C       -3.31440000      -0.53650000      -1.33470000
N       -3.99830000      -1.25760000      -0.48530000
O       -5.24360000      -1.39000000      -1.05840000
N       -5.31320000      -0.74790000      -2.25990000
C       -4.14170000      -0.21610000      -2.45230000
H       -0.53400000       1.71070000      -0.75370000
H        0.53850000      -0.37530000      -0.87520000
H        0.53870000      -0.30150000       0.89680000
H       -1.37160000      -1.67490000       0.07830000
H       -1.96860000      -0.20330000       0.88880000
H       -3.91160000       0.35730000      -3.33580000
