17
Properties=species:S:1:pos:R:3 gdb_46253=T pbc="F F F"
N        0.03820000       1.21420000      -0.30830000
C        0.01100000      -0.00520000      -0.02750000
O        1.01130000      -0.85250000       0.42170000
C        0.09010000      -1.98040000       0.50070000
C       -1.04680000      -1.09900000      -0.06170000
N       -2.34100000      -0.95410000       0.66330000
C       -3.05300000      -1.49000000      -0.52560000
C       -2.87440000      -0.51430000      -1.64190000
C       -1.77370000      -1.51000000      -1.34360000
H        0.96690000       1.61480000      -0.16360000
H        0.42350000      -2.81090000      -0.12770000
H       -0.03860000      -2.31160000       1.53610000
H       -2.37530000      -1.60180000       1.44480000
H       -3.86840000      -2.19740000      -0.44180000
H       -3.42870000      -0.72960000      -2.54990000
H       -2.73300000       0.53760000      -1.41450000
H       -1.38870000      -2.20730000      -2.07680000
