21
Properties=species:S:1:pos:R:3 gdb_99163=T pbc="F F F"
C        0.08420000       1.48140000       0.26020000
C       -0.05030000      -0.00120000      -0.07800000
C        0.79980000      -0.43820000      -1.26300000
O        1.42460000       0.35310000      -1.93420000
C        0.83250000      -1.93330000      -1.56440000
C        1.52700000      -2.25980000      -2.87660000
C        3.05650000      -2.06420000      -2.94790000
O        3.26340000      -3.45230000      -3.29340000
C        1.85900000      -3.74180000      -3.16310000
H        1.11380000       1.72860000       0.53220000
H       -0.18130000       2.10100000      -0.59950000
H       -0.56730000       1.74780000       1.09700000
H        0.20730000      -0.63540000       0.78120000
H       -1.09300000      -0.25830000      -0.31420000
H        1.34210000      -2.42930000      -0.72470000
H       -0.19440000      -2.32340000      -1.54890000
H        1.00800000      -1.76900000      -3.70240000
H        3.42180000      -1.38440000      -3.72410000
H        3.53650000      -1.80310000      -1.99550000
H        1.65650000      -4.43180000      -2.33090000
H        1.43700000      -4.16730000      -4.08190000
