22
Properties=species:S:1:pos:R:3 gdb_104004=T pbc="F F F"
C       -0.01490000       1.32660000       0.14160000
O       -0.15240000      -0.04560000      -0.14900000
C        0.63750000      -0.53550000      -1.20770000
C        0.23460000       0.06270000      -2.55650000
C        2.20940000      -0.55350000      -1.01260000
C        2.14620000      -2.07610000      -1.13230000
N        1.31930000      -2.51310000       0.01880000
C        0.65750000      -2.07900000      -1.23650000
C       -0.30170000      -2.97710000      -1.95670000
H        1.03570000       1.61130000       0.30000000
H       -0.43260000       1.97350000      -0.64380000
H       -0.56680000       1.50960000       1.06710000
H        0.48160000       1.12730000      -2.60740000
H        0.76260000      -0.43550000      -3.37520000
H       -0.84240000      -0.04810000      -2.71810000
H        2.74530000      -0.04820000      -1.81920000
H        2.56710000      -0.20250000      -0.04250000
H        2.87090000      -2.74100000      -1.58710000
H        1.30290000      -3.53370000       0.00800000
H       -1.26120000      -3.02930000      -1.42960000
H       -0.49830000      -2.62750000      -2.97500000
H        0.09830000      -3.99490000      -2.02620000
