22
Properties=species:S:1:pos:R:3 gdb_113946=T pbc="F F F"
C       -0.50690000       1.29390000       0.42020000
C        0.39780000       0.16510000      -0.08950000
C        1.01660000      -0.61080000       1.05010000
O        0.16410000      -1.49690000       1.78840000
C        1.27200000      -2.05990000       1.06990000
C        0.95090000      -3.00920000      -0.05890000
N        0.75100000      -4.35460000       0.47050000
C       -0.59370000      -4.64950000       0.96110000
C       -0.10500000      -5.23590000      -0.31700000
H        0.05350000       2.00200000       1.04050000
H       -0.94720000       1.85270000      -0.41080000
H       -1.32010000       0.88730000       1.02870000
H       -0.17710000      -0.50630000      -0.73350000
H        1.20690000       0.58160000      -0.70380000
H        1.65820000      -0.00260000       1.69420000
H        2.07410000      -2.41950000       1.71670000
H        0.07290000      -2.64520000      -0.61670000
H        1.79840000      -3.04390000      -0.75610000
H       -0.64200000      -5.25430000       1.86180000
H       -1.33770000      -3.85850000       0.90290000
H       -0.53020000      -4.84410000      -1.24000000
H        0.20690000      -6.27520000      -0.36680000
