20
Properties=species:S:1:pos:R:3 gdb_40254=T pbc="F F F"
C        0.12410000       1.48690000      -0.00000000
O        1.22610000       0.57730000      -0.01860000
C       -0.11220000       0.03800000       0.01100000
C       -0.45230000      -0.69890000       1.28990000
C       -0.02180000      -2.16300000       1.13760000
C       -0.79540000      -2.84560000       0.00400000
N       -0.80680000      -2.09940000      -1.27180000
C       -1.88850000      -1.14430000      -1.48420000
C       -0.49900000      -0.66010000      -1.26100000
H        0.00110000       2.05790000       0.92050000
H       -0.02970000       2.05490000      -0.91740000
H        0.06820000      -0.21310000       2.12000000
H       -1.52890000      -0.63840000       1.49590000
H        1.05340000      -2.19140000       0.92520000
H       -0.17970000      -2.71990000       2.06710000
H       -0.35840000      -3.82980000      -0.19790000
H       -1.83130000      -3.02160000       0.32290000
H       -2.32040000      -1.12690000      -2.48220000
H       -2.61110000      -0.99870000      -0.68180000
H        0.08610000      -0.32510000      -2.11540000
