18
Properties=species:S:1:pos:R:3 gdb_98480=T pbc="F F F"
C       -0.40770000       1.48010000       0.79740000
O       -0.37560000       0.05130000       0.91620000
C        0.83770000      -0.51730000       0.72640000
O        1.83130000       0.10880000       0.46060000
C        0.79130000      -2.00710000       0.90700000
C        1.91890000      -2.77740000       0.24640000
O        1.66700000      -2.94810000      -1.13410000
C        0.12230000      -2.51980000       2.14450000
N       -0.50890000      -2.70470000       0.83990000
H       -0.08010000       1.78750000      -0.19830000
H       -1.44470000       1.76930000       0.96700000
H        0.24640000       1.94170000       1.54120000
H        2.85180000      -2.21670000       0.33330000
H        2.03900000      -3.74400000       0.75790000
H        0.79960000      -3.36780000      -1.19150000
H        0.51280000      -3.42180000       2.60720000
H       -0.30400000      -1.79250000       2.82860000
H       -1.24890000      -2.01780000       0.72170000
