18
Properties=species:S:1:pos:R:3 gdb_99807=T pbc="F F F"
C        0.05230000       1.57420000      -0.01280000
C        0.01490000       0.02210000      -0.02730000
C        0.68740000      -0.55780000       1.25270000
N        2.09860000      -0.14710000       1.36730000
H        2.59940000      -0.76030000       2.00080000
H        2.34940000      -0.33580000      -0.33870000
H        2.17910000       0.79540000       1.73410000
C       -1.37370000      -0.43280000      -0.03020000
C       -2.51410000      -0.80170000       0.04660000
C        0.72400000      -0.43760000      -1.34240000
O        0.11890000      -0.65440000      -2.35570000
O        2.05650000      -0.50980000      -1.27380000
H        1.08170000       1.94290000      -0.04800000
H       -0.47720000       1.96480000      -0.88390000
H       -0.43630000       1.95670000       0.88850000
H        0.08370000      -0.25890000       2.11890000
H        0.65950000      -1.64950000       1.19810000
H       -3.52280000      -1.13320000       0.07310000
