15
Properties=species:S:1:pos:R:3 gdb_31853=T pbc="F F F"
C        0.00540000       1.38620000       0.06950000
O        0.01440000      -0.03800000      -0.01540000
C        0.61010000      -0.57910000      -1.09690000
C        0.63010000      -1.97710000      -1.19890000
N        1.19900000      -2.58010000      -2.23630000
C        1.74610000      -1.80440000      -3.16920000
O        2.33110000      -2.39530000      -4.23450000
C        1.72720000      -0.41410000      -3.06940000
N        1.15590000       0.19220000      -2.02770000
H        1.02330000       1.78670000       0.09200000
H       -0.52240000       1.82900000      -0.78040000
H       -0.51340000       1.61910000       1.00010000
H        0.17900000      -2.59470000      -0.42850000
H        2.23270000      -3.34820000      -4.10540000
H        2.17750000       0.20610000      -3.83800000
