19
Properties=species:S:1:pos:R:3 gdb_114973=T pbc="F F F"
O       -0.04070000       1.40630000      -0.13630000
C        0.00660000      -0.00170000       0.05920000
C       -1.42890000      -0.52070000       0.02930000
C       -2.08710000      -0.31510000      -1.38460000
C       -1.76700000      -1.61760000      -2.11740000
C       -1.51810000      -2.56210000      -1.21860000
C       -0.56150000      -3.65000000      -0.80140000
O       -0.29300000      -2.88560000       0.41740000
C       -1.49230000      -2.05500000       0.18410000
H        0.86310000       1.73060000      -0.18230000
H        0.59760000      -0.49530000      -0.72580000
H        0.46770000      -0.25810000       1.02380000
H       -1.99130000      -0.00050000       0.81040000
H       -3.16520000      -0.12720000      -1.29920000
H       -1.65740000       0.55600000      -1.88790000
H       -1.65120000      -1.68200000      -3.19290000
H       -1.00640000      -4.62390000      -0.55860000
H        0.33270000      -3.79680000      -1.41620000
H       -2.28670000      -2.38410000       0.86660000
