15
Properties=species:S:1:pos:R:3 gdb_37125=T pbc="F F F"
C       -0.06470000       1.59770000      -0.27950000
C        1.24470000       0.90930000       0.02360000
O        1.72270000       0.87430000       1.33030000
C        1.02040000      -0.18030000       1.99230000
O       -0.24560000      -0.31250000       1.34160000
C       -0.06460000       0.11990000       0.03110000
C        0.52970000      -0.81910000      -1.06660000
O        0.87960000       0.01360000      -2.17390000
C        1.78840000      -0.06040000      -1.07360000
H       -0.43470000       2.21910000       0.52730000
H       -0.27710000       1.94040000      -1.28400000
H        1.58750000      -1.12150000       1.92770000
H        0.85850000       0.09800000       3.03710000
H        0.27970000      -1.85550000      -1.26090000
H        2.82000000      -0.32420000      -1.27520000
