18
Properties=species:S:1:pos:R:3 gdb_72045=T pbc="F F F"
C       -0.14270000       1.46820000      -0.03210000
C        0.00100000      -0.01840000      -0.08310000
C        0.93470000      -0.85650000      -0.96030000
C        0.11770000      -2.08380000      -0.48420000
C        0.40280000      -2.09440000       1.02270000
N       -0.32090000      -0.78760000       1.16930000
C       -1.05690000      -1.07970000      -0.11930000
C       -2.45390000      -1.07040000      -0.31360000
C       -3.64130000      -1.07820000      -0.51420000
H        0.75100000       1.92810000       0.40460000
H       -0.28300000       1.88180000      -1.03600000
H       -1.00160000       1.74670000       0.58350000
H        0.76740000      -0.63230000      -2.01690000
H        2.00900000      -0.85120000      -0.74360000
H        0.04220000      -2.98750000      -1.08490000
H       -0.15290000      -2.85760000       1.57250000
H        1.44920000      -2.08330000       1.34930000
H       -4.68970000      -1.08090000      -0.68150000
