14
Properties=species:S:1:pos:R:3 gdb_9871=T pbc="F F F"
O       -0.05020000       1.38240000      -0.06660000
C        0.00070000      -0.01630000      -0.01300000
C       -0.48010000      -0.69480000       1.26900000
C       -1.35700000      -0.68110000       0.05160000
C        1.05060000      -0.64200000      -0.75940000
C        1.95730000      -1.15840000      -1.37320000
C        3.03420000      -1.74760000      -2.11790000
O        3.22490000      -2.93860000      -2.22790000
H        0.75500000       1.72550000       0.33770000
H       -0.00520000      -1.62300000       1.56290000
H       -0.72790000      -0.01460000       2.07570000
H       -2.19230000       0.00910000       0.03720000
H       -1.49600000      -1.59920000      -0.50510000
H        3.70270000      -1.00680000      -2.60290000
