17
Properties=species:S:1:pos:R:3 gdb_23463=T pbc="F F F"
O       -0.02520000       1.31160000      -0.22150000
N        0.02990000      -0.09060000      -0.17790000
C       -1.11630000      -0.61430000       0.04300000
C       -2.39960000       0.15020000       0.26780000
C       -3.37320000      -0.56420000       1.17080000
C       -3.30970000      -1.86460000       1.45290000
C       -2.26850000      -2.73900000       0.85950000
N       -2.22370000      -2.77370000      -0.62460000
C       -1.14120000      -2.09370000       0.12220000
H        0.90020000       1.54460000      -0.34930000
H       -2.15540000       1.13910000       0.66610000
H       -2.87300000       0.33790000      -0.70770000
H       -4.16890000       0.04450000       1.59140000
H       -4.03980000      -2.32430000       2.11220000
H       -2.05130000      -3.66580000       1.38350000
H       -1.88260000      -3.68080000      -0.93600000
H       -0.16070000      -2.55830000       0.14980000
