14
Properties=species:S:1:pos:R:3 gdb_1847=T pbc="F F F"
C       -0.01480000       1.49990000       0.03950000
C       -0.00170000       0.00870000      -0.00900000
C       -0.04970000      -0.77940000      -1.09000000
N       -0.01750000      -2.14160000      -0.74240000
C        0.05610000      -2.31580000       0.62690000
O        0.09640000      -3.37300000       1.21230000
C        0.07050000      -0.88890000       1.20560000
H        0.88700000       1.89800000       0.52260000
H       -0.07180000       1.92810000      -0.96570000
H       -0.86970000       1.87950000       0.61430000
H       -0.10690000      -0.49810000      -2.13240000
H       -0.04360000      -2.91430000      -1.38610000
H        0.97940000      -0.74540000       1.80230000
H       -0.77490000      -0.76410000       1.89290000
