20
Properties=species:S:1:pos:R:3 gdb_121502=T pbc="F F F"
C       -0.06220000       1.13640000       0.13460000
C       -0.31070000      -0.17050000      -0.59480000
O        0.95330000      -0.66870000      -1.04490000
C        0.91640000      -1.83350000      -1.72140000
N        1.98880000      -2.34540000      -2.14180000
C        1.94510000      -3.60990000      -2.85960000
C        0.63180000      -4.00050000      -3.49860000
C        0.20600000      -5.40030000      -3.61380000
O       -0.38290000      -4.54000000      -2.63780000
H        0.59660000       0.97830000       0.99270000
H        0.40940000       1.86440000      -0.53090000
H       -1.00840000       1.55240000       0.49280000
H       -0.78390000      -0.90560000       0.07000000
H       -0.97680000      -0.01710000      -1.45510000
H       -0.09030000      -2.25120000      -1.84560000
H        2.70590000      -3.56540000      -3.65080000
H        2.26240000      -4.41060000      -2.17790000
H        0.24590000      -3.29360000      -4.23590000
H       -0.44950000      -5.70070000      -4.42980000
H        0.84210000      -6.19030000      -3.21640000
