21
Properties=species:S:1:pos:R:3 gdb_40862=T pbc="F F F"
C        0.00780000       1.56270000      -0.06800000
C        1.55220000       1.56190000       0.09460000
C        1.45910000       0.10680000       0.62310000
C        0.02850000       0.01180000       0.02670000
C        2.43660000      -1.03660000       0.40610000
C        3.42080000      -1.05140000       1.58680000
C        3.04600000       0.11050000       2.50520000
C        1.57320000      -0.22210000       2.14000000
C        2.05350000      -1.67320000       1.72430000
H       -0.49380000       2.01870000       0.79000000
H       -0.40310000       2.00240000      -0.97950000
H        2.06770000       1.60940000      -0.87020000
H        1.99500000       2.31190000       0.75640000
H       -0.73930000      -0.47710000       0.63350000
H        0.03360000      -0.45450000      -0.96410000
H        2.67330000      -1.53590000      -0.52620000
H        4.37220000      -1.56200000       1.50480000
H        3.26380000      -0.12530000       3.55090000
H        3.41420000       1.11650000       2.27180000
H        0.75690000       0.02210000       2.81850000
H        1.72950000      -2.67140000       1.97850000
