21
Properties=species:S:1:pos:R:3 gdb_65976=T pbc="F F F"
C       -0.01140000       1.62420000      -0.12900000
C       -0.03580000       0.09360000       0.00060000
C        0.94250000      -0.62970000      -0.99540000
C        1.94320000      -0.92950000       0.16000000
C        0.89930000      -0.37990000       1.14050000
O        0.81280000      -0.35760000       2.33630000
C       -1.45930000      -0.42450000       0.03560000
C       -1.83130000      -1.73690000       0.68140000
C       -2.26600000      -0.43490000       1.31010000
H        1.01160000       2.01350000      -0.16890000
H       -0.52290000       1.93240000      -1.04770000
H       -0.52020000       2.08930000       0.72010000
H        0.50770000      -1.53270000      -1.42770000
H        1.33010000      -0.00210000      -1.79990000
H        2.22110000      -1.97400000       0.32530000
H        2.86090000      -0.33310000       0.14370000
H       -2.01200000      -0.17910000      -0.86970000
H       -2.57700000      -2.35240000       0.19050000
H       -1.05960000      -2.30080000       1.19440000
H       -1.75880000      -0.13890000       2.22100000
H       -3.31310000      -0.15770000       1.25760000
