17
Properties=species:S:1:pos:R:3 gdb_50512=T pbc="F F F"
O       -0.46740000       0.30160000       0.22990000
C       -0.09480000       1.42050000       0.00120000
C        1.36600000       1.86710000      -0.00920000
C        1.68530000       2.80280000      -1.21550000
C        1.73780000       4.24840000      -0.64960000
C        1.81110000       4.03610000       0.84400000
C        2.04770000       5.11990000       1.80430000
O        2.19910000       6.27920000       1.48850000
C        1.62840000       2.75250000       1.18560000
H       -0.81660000       2.24130000      -0.21880000
H        1.97100000       0.95540000       0.00940000
H        2.65470000       2.51980000      -1.63280000
H        0.95200000       2.69820000      -2.02050000
H        2.59240000       4.82070000      -1.02170000
H        0.84780000       4.83310000      -0.90950000
H        2.08210000       4.80130000       2.86950000
H        1.62440000       2.37240000       2.20200000
