21
Properties=species:S:1:pos:R:3 gdb_57999=T pbc="F F F"
C        0.24280000       1.58470000       0.16060000
C        0.02700000       0.06450000      -0.00170000
C        0.50790000      -0.42720000      -1.37030000
C        0.76500000      -0.64570000       1.13380000
O        1.91820000      -0.99550000       1.03050000
C       -0.03140000      -0.88550000       2.41550000
C        0.85010000      -1.23380000       3.61950000
C        0.06140000      -1.89260000       4.72410000
O        0.02650000      -1.52630000       5.86990000
H        1.30460000       1.83050000       0.06110000
H       -0.30830000       2.12730000      -0.61300000
H       -0.10080000       1.94870000       1.13420000
H       -1.04580000      -0.13870000       0.11130000
H        1.58770000      -0.28860000      -1.46450000
H        0.29670000      -1.49190000      -1.50860000
H        0.01080000       0.12590000      -2.17280000
H       -0.67200000      -0.01990000       2.61960000
H       -0.72530000      -1.71150000       2.19230000
H        1.62140000      -1.93680000       3.27700000
H        1.35790000      -0.35180000       4.01740000
H       -0.51720000      -2.78950000       4.39290000
