15
Properties=species:S:1:pos:R:3 gdb_70973=T pbc="F F F"
O       -0.10770000       1.33980000      -0.05170000
C        0.05230000      -0.02380000      -0.04460000
C        0.98630000      -0.86370000      -0.91500000
C        0.10430000      -2.05660000      -0.44120000
N        0.46610000      -2.15110000       1.02870000
C       -0.31480000      -0.90010000       1.16690000
C       -1.07330000      -1.02900000      -0.12820000
C       -0.00140000      -3.27580000      -1.19520000
N       -0.10530000      -4.25750000      -1.79740000
H        0.55900000       1.73350000       0.52260000
H        0.83580000      -0.64760000      -1.97440000
H        2.04780000      -0.93780000      -0.66580000
H       -0.09770000      -2.90530000       1.42350000
H       -0.61410000      -0.47840000       2.11720000
H       -2.10910000      -0.96060000      -0.43030000
