17
Properties=species:S:1:pos:R:3 gdb_132351=T pbc="F F F"
C       -0.02350000       1.51530000       0.01040000
C        0.01650000       0.00620000       0.00150000
C        0.04420000      -0.68400000      -1.21580000
C        0.08340000      -2.06780000      -1.19060000
F        0.10640000      -2.73580000      -2.35230000
C        0.09610000      -2.80020000      -0.01420000
C        0.06990000      -2.11380000       1.20490000
N        0.14290000      -2.81030000       2.41020000
C        0.02790000      -0.71060000       1.19480000
H        0.87410000       1.93700000      -0.45600000
H       -0.88380000       1.89290000      -0.55300000
H       -0.08800000       1.90860000       1.02810000
H        0.03400000      -0.16470000      -2.16670000
H        0.13020000      -3.88280000      -0.05670000
H       -0.18540000      -3.76400000       2.37370000
H       -0.23150000      -2.31820000       3.20800000
H        0.00920000      -0.17690000       2.14070000
