22
Properties=species:S:1:pos:R:3 gdb_96235=T pbc="F F F"
C       -0.30510000       1.52130000      -0.03500000
C       -0.00920000       0.01370000      -0.01520000
C        0.76040000      -0.46390000      -1.25820000
C        2.14110000       0.15060000      -1.44650000
O        3.11730000      -0.19650000      -0.45410000
C        2.95520000       0.23710000       0.82950000
N        1.95950000       0.20270000       1.60010000
C        0.69430000      -0.46010000       1.28010000
C       -0.21240000      -0.35390000       2.51160000
H        0.59840000       2.12030000       0.10920000
H       -0.75720000       1.81540000      -0.98830000
H       -1.00510000       1.79520000       0.75890000
H       -0.97440000      -0.50980000      -0.03380000
H        0.86380000      -1.55570000      -1.22660000
H        0.18110000      -0.22840000      -2.16070000
H        2.57980000      -0.19910000      -2.38470000
H        2.07450000       1.24450000      -1.49840000
H        3.90380000       0.62160000       1.20950000
H        0.92200000      -1.52750000       1.12860000
H       -0.44630000       0.68980000       2.74060000
H       -1.15070000      -0.89730000       2.35930000
H        0.29460000      -0.77350000       3.38410000
