18
Properties=species:S:1:pos:R:3 gdb_88318=T pbc="F F F"
C        0.18120000       1.41570000       0.06360000
C       -0.21240000      -0.02450000       0.29370000
C        0.01050000      -1.05720000      -0.76920000
N        0.75520000      -1.09170000       0.49000000
C        2.13700000      -0.89440000       0.56910000
N        2.66670000       0.06830000       1.19950000
N        2.81230000      -1.97200000      -0.06080000
C        4.16800000      -2.15300000      -0.14200000
O        5.01450000      -1.39920000       0.28290000
H        1.01720000       1.50280000      -0.63310000
H       -0.67640000       1.95750000      -0.34980000
H        0.48310000       1.89150000       0.99860000
H       -1.09220000      -0.15380000       0.92220000
H       -0.69670000      -1.86810000      -0.92380000
H        0.53960000      -0.72900000      -1.66210000
H        3.68010000      -0.03340000       1.21100000
H        2.22840000      -2.71270000      -0.41930000
H        4.41480000      -3.09820000      -0.66310000
