18
Properties=species:S:1:pos:R:3 gdb_65257=T pbc="F F F"
O       -0.06750000       1.33420000      -0.25780000
C       -0.00710000      -0.04960000      -0.04720000
C       -0.37180000      -0.57700000       1.31440000
C       -1.33290000      -0.71820000       0.14750000
C        1.08140000      -0.72650000      -0.85650000
C        0.92860000      -0.51670000      -2.38790000
O        2.18560000       0.08690000      -2.79220000
C        2.87140000       0.27750000      -1.64770000
N        2.39570000      -0.11690000      -0.53970000
H        0.77890000       1.69020000       0.04240000
H        0.13170000      -1.46310000       1.68510000
H       -0.61740000       0.16080000       2.06920000
H       -2.20330000      -0.07270000       0.13670000
H       -1.49020000      -1.70310000      -0.27950000
H        1.11350000      -1.78940000      -0.59210000
H        0.80260000      -1.44260000      -2.95200000
H        0.12520000       0.18230000      -2.63150000
H        3.82850000       0.77180000      -1.77780000
