20
Properties=species:S:1:pos:R:3 gdb_39819=T pbc="F F F"
C       -0.04750000       1.53980000      -0.00850000
N        1.20830000       0.74710000       0.05410000
C       -0.07460000       0.06920000       0.00730000
C       -0.50550000      -0.98590000       1.01910000
C       -2.00640000      -0.86330000       1.31690000
C       -2.80250000      -1.20000000       0.02860000
C       -2.04210000      -0.83310000      -1.27320000
C       -0.53290000      -0.96410000      -1.01630000
O       -0.31240000      -2.00500000      -0.01650000
H       -0.26880000       2.11030000       0.89000000
H       -0.29760000       2.04920000      -0.93680000
H        1.65540000       0.72810000      -0.86040000
H        0.12930000      -1.15290000       1.89230000
H       -2.30090000      -1.54660000       2.11970000
H       -2.21610000       0.15300000       1.67140000
H       -2.96990000      -2.27920000       0.01750000
H       -3.78920000      -0.72850000       0.04690000
H       -2.35730000      -1.49960000      -2.08260000
H       -2.26200000       0.19030000      -1.60000000
H        0.06820000      -1.11710000      -1.91890000
