14
Properties=species:S:1:pos:R:3 gdb_129181=T pbc="F F F"
N       -0.07630000       1.32160000       0.08750000
C       -0.04740000       0.05330000       0.00160000
N        1.06650000      -0.80770000      -0.12920000
C        0.75110000      -2.24030000      -0.01490000
C       -0.73940000      -2.16400000      -0.00510000
C       -1.18840000      -0.87290000       0.00140000
N       -2.54880000      -0.86210000       0.00050000
N       -2.95900000      -2.09460000      -0.00740000
N       -1.85380000      -2.90990000      -0.01560000
H        0.86420000       1.71960000       0.06490000
H        1.96200000      -0.48370000       0.20000000
H        1.15120000      -2.81080000      -0.86350000
H        1.15500000      -2.68610000       0.90550000
H       -1.98850000      -3.90800000      -0.01970000
