18
Properties=species:S:1:pos:R:3 gdb_30173=T pbc="F F F"
C        0.15820000       1.52750000       0.07540000
C        0.07830000       0.01610000      -0.02110000
C        0.81450000      -0.61010000      -1.26280000
C        1.42960000      -1.78980000      -0.58730000
C        1.33660000      -1.67130000       0.76800000
O        0.65800000      -0.56100000       1.18780000
C        2.04650000      -2.72530000       1.38800000
C        2.57200000      -3.46670000       0.34070000
N        2.21120000      -2.88710000      -0.85550000
H        1.20200000       1.85490000       0.10410000
H       -0.32860000       1.99080000      -0.78900000
H       -0.33950000       1.88220000       0.98220000
H       -0.97110000      -0.30700000      -0.04470000
H        0.09500000      -0.83590000      -2.05770000
H        1.55560000       0.08690000      -1.68270000
H        2.16940000      -2.93170000       2.43870000
H        3.15300000      -4.37480000       0.35750000
H        2.42450000      -3.26330000      -1.76170000
