16
Properties=species:S:1:pos:R:3 gdb_28589=T pbc="F F F"
N        0.15410000       1.26300000      -0.43020000
C       -0.05220000      -0.07410000      -0.13300000
C       -1.11970000      -0.78220000       0.33970000
C       -0.70000000      -2.15320000       0.33580000
C        0.57440000      -2.18330000      -0.13340000
O        0.97880000      -0.89670000      -0.43070000
C        1.52600000      -3.26810000      -0.36500000
C        2.70310000      -3.14390000      -1.23870000
O        2.85800000      -3.13750000       0.17870000
H        1.12300000       1.54010000      -0.33580000
H       -0.45120000       1.88090000       0.09180000
H       -2.07110000      -0.38340000       0.65180000
H       -1.27690000      -3.00880000       0.65210000
H        1.08850000      -4.25630000      -0.22840000
H        3.08520000      -4.02510000      -1.75400000
H        2.89370000      -2.19340000      -1.73360000
