16
Properties=species:S:1:pos:R:3 gdb_131790=T pbc="F F F"
O        0.01790000       1.47490000       0.24090000
C       -0.11220000       0.09310000       0.53700000
C       -1.01900000      -0.61040000      -0.47630000
C       -1.17250000      -2.09510000      -0.28180000
N       -2.05810000      -2.72780000      -1.07520000
C       -2.15510000      -4.03160000      -0.88360000
C       -1.37950000      -4.67130000       0.08610000
N       -0.52700000      -3.99320000       0.84420000
N       -0.42070000      -2.67950000       0.65660000
H       -0.83570000       1.89340000       0.39030000
H        0.89600000      -0.32530000       0.49460000
H       -0.47980000      -0.07480000       1.55880000
H       -2.02350000      -0.16650000      -0.46340000
H       -0.63630000      -0.43000000      -1.48870000
H       -2.85830000      -4.58340000      -1.50400000
H       -1.44020000      -5.74020000       0.26400000
