20
Properties=species:S:1:pos:R:3 gdb_119664=T pbc="F F F"
C       -0.04910000       1.37330000       0.02320000
O       -0.05320000      -0.03410000       0.02480000
C        0.73490000      -0.58610000       1.05920000
C        0.68170000      -2.08360000       0.94330000
C        1.14850000      -3.00480000      -0.17920000
N        0.60040000      -4.03170000       0.80780000
C        1.12300000      -3.16180000       1.98500000
C       -0.23850000      -3.21610000       2.68430000
C       -0.53170000      -3.03940000       1.19180000
H        0.96490000       1.77960000      -0.12020000
H       -0.68140000       1.70160000      -0.80540000
H       -0.45170000       1.78500000       0.96260000
H        1.77940000      -0.23570000       0.97940000
H        0.36250000      -0.26300000       2.04780000
H        0.60410000      -2.97550000      -1.12790000
H        2.22580000      -3.10180000      -0.35460000
H        2.12650000      -3.32610000       2.38380000
H       -0.51550000      -4.18130000       3.11590000
H       -0.49550000      -2.38710000       3.34790000
H       -1.48050000      -3.05190000       0.65350000
