17
Properties=species:S:1:pos:R:3 gdb_1898=T pbc="F F F"
C       -0.16310000       1.62800000      -0.05390000
C        0.01510000       0.12050000       0.02460000
C        1.18000000      -0.64720000      -0.65830000
C        2.18060000      -0.12200000       0.39330000
C        0.88490000      -0.58890000       1.11460000
C        0.61830000      -0.78410000       2.57460000
O        0.89550000      -1.79220000       0.23430000
H        0.77010000       2.18190000       0.07700000
H       -0.58420000       1.91310000      -1.02420000
H       -0.86310000       1.97060000       0.71620000
H       -0.93340000      -0.40650000      -0.11560000
H        1.33960000      -0.86650000      -1.71450000
H        3.04570000      -0.76580000       0.55800000
H        2.44060000       0.93840000       0.40140000
H        0.62710000       0.17970000       3.09380000
H       -0.35990000      -1.25050000       2.72680000
H        1.38250000      -1.42530000       3.02430000
