14
Properties=species:S:1:pos:R:3 gdb_1325=T pbc="F F F"
C       -0.09890000       1.54020000       0.00690000
C       -0.05210000       0.03100000       0.05720000
C       -1.21390000      -0.69820000      -0.58010000
O        1.23500000      -0.55210000      -0.19550000
C        0.70790000      -0.66530000       1.12750000
C        1.39840000       0.06150000       2.17130000
N        1.93240000       0.62940000       3.02500000
H        0.77410000       1.98160000       0.49060000
H       -0.12540000       1.87410000      -1.03540000
H       -1.00060000       1.91280000       0.50320000
H       -1.29600000      -0.41930000      -1.63570000
H       -1.07840000      -1.78060000      -0.52200000
H       -2.15430000      -0.43190000      -0.08750000
H        0.40260000      -1.66880000       1.42020000
