22
Properties=species:S:1:pos:R:3 gdb_81430=T pbc="F F F"
C       -0.03340000       1.62710000       0.00600000
C       -0.01680000       0.10020000       0.00670000
C        1.08050000      -0.60900000      -0.84650000
C        2.05650000      -0.32110000       0.33160000
C        0.74900000      -0.62260000       1.15430000
C        0.62050000      -2.12130000       0.80250000
C        1.31660000      -3.12470000       1.68880000
C       -0.39370000      -2.56130000      -0.19440000
N        0.92670000      -2.09420000      -0.66400000
H        0.94120000       2.08530000       0.18760000
H       -0.39670000       1.99900000      -0.95870000
H       -0.71890000       1.99800000       0.77620000
H       -1.04580000      -0.22250000      -0.15760000
H        1.28980000      -0.33550000      -1.88120000
H        2.89170000      -1.01600000       0.43810000
H        2.40950000       0.70660000       0.40020000
H        0.63340000      -0.33990000       2.20170000
H        0.73380000      -3.30890000       2.59890000
H        1.44500000      -4.07700000       1.16720000
H        2.30800000      -2.77090000       1.99260000
H       -0.52200000      -3.63290000      -0.32700000
H       -1.29530000      -1.99780000      -0.40040000
