17
Properties=species:S:1:pos:R:3 gdb_43157=T pbc="F F F"
C       -0.06390000      -1.27640000      -0.09160000
C       -0.03610000      -0.07490000      -0.03950000
C       -0.00350000       1.36960000       0.02200000
C       -0.13100000       2.08580000       1.42630000
C        1.02270000       1.44090000       2.22550000
C        2.15640000       1.46170000       1.13560000
C        1.39080000       2.11380000      -0.03670000
C        0.63100000       3.22200000       0.71730000
O        0.57440000       4.41350000       0.68130000
H       -0.09450000      -2.33670000      -0.14360000
H       -0.70320000       1.80350000      -0.69760000
H       -1.09310000       2.23040000       1.91230000
H        1.27750000       2.02450000       3.11320000
H        0.77310000       0.42530000       2.53870000
H        3.02210000       2.05650000       1.43590000
H        2.49840000       0.45700000       0.88000000
H        1.91120000       2.28550000      -0.97610000
