22
Properties=species:S:1:pos:R:3 gdb_56258=T pbc="F F F"
C       -0.15160000       1.42540000      -0.14100000
C       -0.12650000      -0.09500000      -0.20470000
O        0.59600000      -0.69710000      -0.97910000
N       -0.96840000      -0.72760000       0.66650000
C       -1.12300000      -2.17270000       0.68940000
C       -2.34640000      -2.66720000      -0.09760000
C       -2.48120000      -4.17390000      -0.06420000
C       -3.17060000      -4.85660000       1.09320000
C       -3.82150000      -4.83110000      -0.26820000
H        0.87640000       1.78880000      -0.07470000
H       -0.57470000       1.81130000      -1.07330000
H       -0.72820000       1.82330000       0.69840000
H       -1.58210000      -0.17010000       1.23680000
H       -0.20950000      -2.58550000       0.25460000
H       -1.18480000      -2.50980000       1.73040000
H       -3.25680000      -2.20970000       0.31390000
H       -2.25860000      -2.31630000      -1.13310000
H       -1.62870000      -4.70470000      -0.48170000
H       -2.77060000      -5.79640000       1.45730000
H       -3.60010000      -4.22960000       1.86860000
H       -4.68450000      -4.18730000      -0.40480000
H       -3.86340000      -5.75340000      -0.83690000
