19
Properties=species:S:1:pos:R:3 gdb_76810=T pbc="F F F"
C       -0.50690000       1.47610000      -0.10740000
C       -0.08730000       0.02120000       0.04580000
C        1.04990000      -0.53580000      -0.95420000
O        1.47070000       0.23570000      -2.03050000
C        1.96110000      -0.59070000       0.28940000
C        2.92730000      -1.01500000       1.42560000
C        2.03160000       0.21100000       1.87700000
O        2.32400000       0.84450000       0.59000000
C        0.77980000      -0.47690000       1.26210000
H        0.33550000       2.15620000       0.02100000
H       -0.94270000       1.64240000      -1.09850000
H       -1.26640000       1.73220000       0.63900000
H       -0.97670000      -0.61270000      -0.02250000
H        0.78050000      -1.52320000      -1.33820000
H        1.83890000       1.04780000      -1.65960000
H        2.74750000      -1.98780000       1.88960000
H        3.98610000      -0.78290000       1.30220000
H        2.15270000       0.82150000       2.77680000
H        0.41760000      -1.37760000       1.75990000
