15
Properties=species:S:1:pos:R:3 gdb_125584=T pbc="F F F"
C       -0.33430000       1.46630000       0.00100000
C       -0.02430000       0.00290000      -0.00790000
N        0.06960000      -0.62610000      -1.12960000
N        0.35140000      -1.94890000      -1.10820000
C        0.56110000      -2.74700000       0.01000000
N        0.82740000      -3.99250000       0.04280000
N        0.44880000      -2.02450000       1.18940000
C        0.16540000      -0.67600000       1.30120000
O        0.08520000      -0.11430000       2.37410000
H        0.46270000       2.02440000       0.50290000
H       -0.44910000       1.82960000      -1.02090000
H       -1.25150000       1.66080000       0.56640000
H        0.40950000      -2.37280000      -2.01910000
H        0.88080000      -4.39820000      -0.88860000
H        0.59050000      -2.54700000       2.04380000
