19
Properties=species:S:1:pos:R:3 gdb_105174=T pbc="F F F"
C        0.03010000       1.56850000      -0.05720000
C        0.00920000       0.11450000      -0.10350000
C       -0.00300000      -1.08970000      -0.12890000
C        0.02070000      -2.52840000      -0.21330000
C        1.20410000      -3.13650000      -0.95170000
O        2.41170000      -2.93150000      -0.24950000
O       -0.26880000      -3.24560000       1.01810000
C       -1.21880000      -3.32480000      -0.04650000
C       -2.57180000      -2.71050000       0.19060000
H        1.03080000       1.95590000      -0.27690000
H       -0.66350000       2.00140000      -0.78640000
H       -0.25850000       1.93460000       0.93410000
H        1.00350000      -4.20730000      -1.10930000
H        1.32460000      -2.66110000      -1.92980000
H        2.27270000      -3.27530000       0.64080000
H       -1.23270000      -4.29700000      -0.54460000
H       -2.47580000      -1.71030000       0.61690000
H       -3.12550000      -2.64120000      -0.75180000
H       -3.15290000      -3.33370000       0.87800000
