15
Properties=species:S:1:pos:R:3 gdb_94137=T pbc="F F F"
C       -0.41210000       1.42900000       0.02700000
C        0.19050000       0.05030000      -0.07010000
O        1.47740000       0.02860000      -0.71490000
C        2.05370000      -0.80410000       0.29310000
C        0.80400000      -0.63110000       1.22540000
C        1.02920000       0.27960000       2.34270000
N        1.22500000       1.02470000       3.20330000
C        0.14880000      -1.85710000       1.66250000
N       -0.37490000      -2.84160000       1.96370000
H        0.25390000       2.11930000       0.54950000
H       -0.58870000       1.80960000      -0.98340000
H       -1.37120000       1.39060000       0.55270000
H       -0.49990000      -0.65400000      -0.55150000
H        2.18990000      -1.84130000      -0.03290000
H        2.98900000      -0.40270000       0.69030000
