18
Properties=species:S:1:pos:R:3 gdb_36150=T pbc="F F F"
N       -0.05740000      -1.08340000      -0.55670000
C       -0.03880000       0.03010000      -0.25000000
C       -0.00250000       1.43740000       0.15460000
C        1.40840000       1.99150000       0.21110000
C        2.45750000       1.37880000       1.12440000
C        3.62860000       2.38930000       1.07340000
C        2.97950000       3.76540000       0.77930000
C        1.72460000       3.41220000       0.00780000
O        1.94480000       2.44730000      -1.03750000
H       -0.59500000       2.02380000      -0.55440000
H       -0.47940000       1.52450000       1.13830000
H        2.03990000       1.29730000       2.13600000
H        2.75020000       0.37330000       0.80900000
H        4.21610000       2.39260000       1.99400000
H        4.29950000       2.12290000       0.25460000
H        2.69120000       4.28360000       1.70240000
H        3.64320000       4.43320000       0.22220000
H        0.96340000       4.15950000      -0.20590000
