22
Properties=species:S:1:pos:R:3 gdb_91942=T pbc="F F F"
C        0.88320000       1.46240000      -0.40150000
C        0.18420000       0.17390000       0.05560000
C        0.14660000      -0.95380000      -1.02030000
N        1.06050000      -2.04410000      -0.63010000
C        2.43470000      -1.59730000      -0.36550000
C        1.47820000      -1.77310000       0.75420000
C        0.76420000      -0.55330000       1.31820000
C        1.64200000       0.29840000       2.23680000
O       -0.31640000      -1.11670000       2.07760000
H        1.93020000       1.31200000      -0.67950000
H        0.37170000       1.86770000      -1.28090000
H        0.85600000       2.23350000       0.37510000
H       -0.84580000       0.44520000       0.30960000
H       -0.85600000      -1.38740000      -1.07910000
H        0.40730000      -0.58620000      -2.01860000
H        3.19530000      -2.35360000      -0.53790000
H        2.73240000      -0.59510000      -0.65800000
H        1.55880000      -2.62310000       1.42550000
H        2.51930000       0.69310000       1.71820000
H        1.08110000       1.15050000       2.64030000
H        1.98310000      -0.30820000       3.08050000
H       -0.78020000      -0.39020000       2.50750000
