18
Properties=species:S:1:pos:R:3 gdb_75919=T pbc="F F F"
C       -0.09920000       1.42080000       0.02920000
N       -0.08500000      -0.02210000       0.04240000
C        0.15150000      -0.74560000      -1.10300000
O        0.25830000      -0.33210000      -2.22620000
O        0.24880000      -2.07060000      -0.77680000
C       -0.04460000      -2.24910000       0.61270000
C        0.02390000      -0.84790000       1.21210000
C        0.91410000      -0.50990000       2.38070000
C       -0.59950000      -0.51200000       2.53010000
H        0.79600000       1.84640000       0.50070000
H       -0.12280000       1.73100000      -1.01650000
H       -0.98550000       1.81260000       0.53960000
H       -1.04720000      -2.68370000       0.70890000
H        0.68770000      -2.93660000       1.04260000
H        1.48150000      -1.31610000       2.83440000
H        1.41560000       0.45120000       2.39370000
H       -1.09240000       0.44770000       2.63970000
H       -1.06730000      -1.31590000       3.09000000
