12
Properties=species:S:1:pos:R:3 gdb_133521=T pbc="F F F"
F       -0.02030000       0.05710000      -0.00690000
C       -0.01020000       1.39350000       0.00350000
F        1.25260000       1.80380000      -0.09760000
F       -0.67830000       1.81990000      -1.07270000
C       -0.68440000       1.92050000       1.29150000
C       -0.00800000       1.40070000       2.48090000
C        0.53730000       0.97380000       3.45990000
C       -0.74720000       3.38290000       1.28290000
C       -0.80790000       4.58060000       1.28020000
H       -1.70630000       1.51790000       1.25590000
H        1.02570000       0.59670000       4.32470000
H       -0.85590000       5.64180000       1.27620000
