14
Properties=species:S:1:pos:R:3 gdb_21639=T pbc="F F F"
N        0.06180000       1.33520000       0.29740000
C        0.00050000      -0.00890000       0.00540000
N       -1.14680000      -0.69980000       0.05840000
N       -0.65040000      -1.96420000      -0.11510000
C       -0.88620000      -3.27800000      -0.75350000
C        0.68820000      -3.35780000      -0.89980000
C        0.65760000      -1.93590000      -0.36010000
N        1.15420000      -0.71860000      -0.29050000
H        0.84540000       1.80160000      -0.13480000
H       -0.81480000       1.82160000       0.17990000
H       -1.37410000      -4.01000000      -0.10610000
H       -1.40930000      -3.20620000      -1.71040000
H        1.18170000      -4.10610000      -0.27680000
H        1.03530000      -3.45120000      -1.93050000
