14
Properties=species:S:1:pos:R:3 gdb_14542=T pbc="F F F"
O       -0.03410000       1.38020000       0.00240000
C       -0.02340000      -0.01440000       0.01100000
C        1.07080000      -0.60250000       0.73280000
C        1.97630000      -1.11770000       1.33310000
C       -1.33440000      -0.81610000       0.05660000
C       -2.36910000      -0.04650000      -0.75080000
O       -1.45680000       0.04780000      -1.89300000
C       -0.50480000      -0.76810000      -1.20780000
H       -0.31500000       1.63530000      -0.88810000
H        2.78200000      -1.56000000       1.86500000
H       -1.51390000      -1.61100000       0.76650000
H       -3.24750000      -0.63770000      -1.02510000
H       -2.66740000       0.93780000      -0.37760000
H        0.06460000      -1.49270000      -1.77790000
