16
Properties=species:S:1:pos:R:3 gdb_27657=T pbc="F F F"
N        0.16450000       1.41590000      -0.10040000
C       -0.00790000       0.01750000      -0.02740000
C       -1.09790000      -0.80750000      -0.08220000
C       -0.62130000      -2.16690000      -0.03670000
C       -1.36580000      -3.36360000      -0.07930000
C       -1.98160000      -4.40150000      -0.11650000
C        0.76220000      -2.10410000       0.06890000
N        1.70870000      -3.11930000       0.23710000
N        1.11990000      -0.78600000       0.06830000
H       -0.59800000       1.84440000      -0.61120000
H        0.19630000       1.85010000       0.81830000
H       -2.12990000      -0.50130000      -0.15010000
H       -2.53510000      -5.30630000      -0.14450000
H        1.23840000      -4.01600000       0.29340000
H        2.38560000      -3.16120000      -0.51890000
H        2.05980000      -0.43330000       0.12960000
