19
Properties=species:S:1:pos:R:3 gdb_50778=T pbc="F F F"
O       -0.59470000       0.08360000       0.31030000
C        0.09930000       0.66240000      -0.48010000
C        1.15530000       1.69800000      -0.08680000
C        1.21620000       2.80760000      -1.02690000
C        1.21800000       3.70110000      -1.83660000
C        1.24920000       4.80390000      -2.77490000
C        0.71520000       6.20510000      -2.32780000
C        1.87250000       6.85750000      -3.12870000
C        2.61410000       5.49530000      -3.10270000
H        0.03200000       0.47460000      -1.57390000
H        0.94740000       2.02430000       0.93760000
H        2.12000000       1.16720000      -0.06130000
H        0.75780000       4.50980000      -3.70930000
H       -0.31220000       6.45510000      -2.60020000
H        0.83940000       6.33890000      -1.25040000
H        1.56170000       7.13110000      -4.14110000
H        2.37680000       7.71410000      -2.67770000
H        3.29850000       5.41990000      -2.25410000
H        3.13250000       5.16770000      -4.00640000
