18
Properties=species:S:1:pos:R:3 gdb_111669=T pbc="F F F"
O        0.10550000       1.19560000       0.58500000
C        0.04750000       0.01920000      -0.20340000
C       -1.32940000      -0.61670000      -0.16630000
C       -1.61630000      -2.09730000      -0.13050000
C       -0.49210000      -3.07240000       0.22190000
N       -0.09250000      -2.66050000       1.55840000
C       -0.82250000      -1.63970000       2.11090000
O       -0.62550000      -1.12880000       3.19550000
C       -1.87360000      -1.25680000       1.10060000
H       -0.08020000       0.94080000       1.49720000
H        0.27940000       0.33080000      -1.22730000
H        0.82290000      -0.69920000       0.09710000
H       -2.07950000      -0.03690000      -0.69770000
H       -2.43020000      -2.47840000      -0.73480000
H       -0.86680000      -4.10390000       0.21750000
H        0.34880000      -3.02250000      -0.48140000
H        0.73800000      -2.99790000       2.01870000
H       -2.85190000      -0.98280000       1.47220000
