17
Properties=species:S:1:pos:R:3 gdb_1798=T pbc="F F F"
C       -0.24710000       1.44130000       0.06780000
C        0.29630000       0.02740000      -0.03660000
O        0.84570000      -0.50010000       0.90960000
C        0.13400000      -0.69950000      -1.34490000
C       -0.55790000      -0.00510000      -2.50190000
C        1.26790000      -1.67100000      -1.66190000
C       -0.04340000      -2.20870000      -1.20050000
H        0.22210000       2.09460000      -0.67610000
H       -1.32420000       1.46000000      -0.13160000
H       -0.05250000       1.82640000       1.06900000
H       -0.03330000       0.90680000      -2.80700000
H       -0.59340000      -0.66560000      -3.37340000
H       -1.59070000       0.26770000      -2.25920000
H        1.53980000      -1.77650000      -2.70660000
H        2.08970000      -1.69010000      -0.95600000
H       -0.09710000      -2.58680000      -0.18660000
H       -0.69440000      -2.69260000      -1.92050000
