14
Properties=species:S:1:pos:R:3 gdb_849=T pbc="F F F"
N        0.16450000       1.40670000       0.06690000
C        0.00370000       0.00490000       0.01690000
C       -1.11010000      -0.80890000       0.02240000
C       -0.64940000      -2.16170000       0.03390000
N       -1.48000000      -3.30020000       0.10780000
C        0.72640000      -2.12950000       0.02460000
N        1.10980000      -0.79560000       0.01600000
H        0.37360000       1.80250000      -0.84580000
H       -0.68370000       1.84770000       0.40100000
H       -2.13820000      -0.47890000       0.00430000
H       -2.29820000      -3.20970000      -0.48270000
H       -0.98930000      -4.14460000      -0.15980000
H        1.45490000      -2.92340000       0.01470000
H        2.04330000      -0.45040000       0.15120000
