17
Properties=species:S:1:pos:R:3 gdb_83959=T pbc="F F F"
O        0.13850000       1.37860000      -0.09580000
C        0.03550000       0.00040000       0.01520000
C        0.18960000      -0.68680000       1.41680000
O       -0.47600000       0.12750000       2.38940000
C       -1.87390000       0.15370000       2.18960000
O       -2.22680000       0.18580000       0.81970000
C       -1.38150000      -0.65690000       0.02150000
C       -0.76650000      -1.79760000       0.87670000
O       -0.12950000      -2.71300000       0.01150000
H       -0.55550000       1.75560000       0.45860000
H        0.68940000      -0.45850000      -0.72500000
H        1.17130000      -0.94580000       1.81850000
H       -2.34370000      -0.71360000       2.67620000
H       -2.25410000       1.07180000       2.64570000
H       -1.91280000      -0.89230000      -0.90080000
H       -1.41580000      -2.30720000       1.59590000
H        0.44610000      -3.27510000       0.54070000
