19
Properties=species:S:1:pos:R:3 gdb_109754=T pbc="F F F"
C        0.38020000       1.18400000       0.21710000
O       -0.33090000       0.15780000      -0.46560000
C        0.46320000      -0.53420000      -1.35980000
C        1.41320000      -1.57290000      -0.85620000
O        1.55410000      -1.81110000       0.49430000
C        0.12130000      -2.01550000      -1.58700000
C       -0.94230000      -2.66760000      -0.78330000
C       -1.94370000      -3.51040000      -1.54360000
O       -1.00880000      -2.55390000       0.43160000
H        1.22090000       0.77090000       0.78480000
H        0.75420000       1.94350000      -0.48530000
H       -0.33030000       1.65330000       0.90060000
H        0.73120000       0.01710000      -2.26440000
H        2.34330000      -1.72600000      -1.39650000
H        0.65620000      -1.98190000       0.84310000
H        0.20830000      -2.35910000      -2.61200000
H       -1.42950000      -4.31280000      -2.08500000
H       -2.66940000      -3.93940000      -0.85210000
H       -2.45900000      -2.89890000      -2.29290000
