22
Properties=species:S:1:pos:R:3 gdb_121268=T pbc="F F F"
C       -0.11100000       1.52350000      -0.03540000
O        0.01020000       0.12260000      -0.06610000
C       -1.23200000      -0.53970000       0.06120000
C       -1.03870000      -2.05080000       0.03400000
C       -0.19580000      -2.58670000      -1.14970000
C        0.38840000      -3.90710000      -0.60850000
C        0.44100000      -3.69230000       0.89800000
C        1.00670000      -2.41480000       1.39700000
N       -0.45450000      -2.58280000       1.28600000
H        0.89160000       1.94320000      -0.14850000
H       -0.74670000       1.89560000      -0.85520000
H       -0.53970000       1.87630000       0.91570000
H       -1.72290000      -0.25470000       1.00540000
H       -1.90280000      -0.24330000      -0.76400000
H       -2.04670000      -2.48400000      -0.01800000
H       -0.80010000      -2.73190000      -2.04900000
H        0.59220000      -1.87420000      -1.40140000
H       -0.27890000      -4.74790000      -0.82960000
H        1.36550000      -4.14720000      -1.03960000
H        0.43030000      -4.56650000       1.54330000
H        1.36380000      -2.35100000       2.42100000
H        1.51130000      -1.75040000       0.70430000
