19
Properties=species:S:1:pos:R:3 gdb_18471=T pbc="F F F"
C       -0.23480000       1.62360000       0.04790000
C       -0.03220000       0.11760000       0.02370000
C        0.93310000      -0.58910000      -0.96900000
C        1.52810000      -1.28610000       0.25400000
C        2.07450000      -0.32880000       1.23170000
C        2.84620000       0.93950000       0.91370000
O        4.24560000       0.69410000       0.93650000
N        0.60870000      -0.54300000       1.22690000
H        0.69870000       2.18980000       0.03530000
H       -0.82360000       1.93480000      -0.82210000
H       -0.79080000       1.90890000       0.94740000
H       -1.01850000      -0.35130000      -0.05060000
H        0.42450000      -1.26220000      -1.66090000
H        1.62140000       0.03920000      -1.54320000
H        1.68800000      -2.35670000       0.33600000
H        2.47540000      -0.80530000       2.12850000
H        2.63520000       1.30560000      -0.09220000
H        2.56610000       1.73600000       1.62060000
H        4.49010000       0.45570000       1.83650000
