16
Properties=species:S:1:pos:R:3 gdb_45455=T pbc="F F F"
O       -0.03300000       0.08660000      -0.78630000
C       -0.02860000       1.16060000      -0.25680000
C       -1.22290000       1.92070000       0.33750000
C       -0.68790000       3.34790000       0.51640000
C       -0.40550000       3.99940000       1.90270000
C        1.08860000       4.11620000       1.46820000
N        0.77550000       3.27620000       0.29080000
C        1.24150000       2.01340000       0.04360000
O        2.37480000       1.60290000       0.12630000
H       -2.10420000       1.83680000      -0.30090000
H       -1.46680000       1.45830000       1.30180000
H       -1.16530000       4.04460000      -0.18060000
H       -0.93020000       4.93120000       2.11770000
H       -0.54660000       3.30400000       2.73380000
H        1.40460000       5.12500000       1.18940000
H        1.84240000       3.66770000       2.11950000
