20
Properties=species:S:1:pos:R:3 gdb_78546=T pbc="F F F"
C       -0.03670000       1.52400000      -0.01210000
N        0.22840000       0.08980000       0.04730000
C        1.37620000      -0.68470000      -0.33130000
C        2.77510000      -0.23390000       0.23520000
O        3.92870000      -0.87800000      -0.17630000
C        2.77200000       1.04570000       1.01440000
C        2.21300000      -0.22650000       1.63340000
C        0.82520000      -0.72070000       1.07020000
C        0.02430000      -1.76010000       1.79810000
H        0.61100000       2.02530000      -0.73860000
H       -1.07460000       1.67910000      -0.33070000
H        0.08530000       2.00830000       0.96240000
H        1.30280000      -1.41720000      -1.13110000
H        4.25790000      -0.42840000      -0.96350000
H        3.75620000       1.28680000       1.40890000
H        2.17660000       1.91240000       0.76750000
H        2.65180000      -0.65330000       2.52590000
H       -0.44980000      -1.33660000       2.69260000
H       -0.76210000      -2.15210000       1.14820000
H        0.66080000      -2.59020000       2.12370000
