17
Properties=species:S:1:pos:R:3 gdb_117063=T pbc="F F F"
C        0.44540000       0.90630000      -0.23480000
C       -0.57790000       0.18030000       0.62350000
O        0.05980000      -0.51820000       1.72260000
C        0.52150000      -1.73660000       1.46500000
O        0.46320000      -2.32000000       0.40940000
C        1.16740000      -2.37630000       2.70580000
O        1.25260000      -1.80850000       3.76750000
C        1.70080000      -3.77980000       2.51560000
O        2.26150000      -4.27180000       3.69560000
H        1.11050000       0.19540000      -0.73070000
H       -0.07100000       1.48690000      -1.00550000
H        1.04400000       1.59270000       0.37030000
H       -1.26190000       0.87690000       1.11160000
H       -1.14870000      -0.54270000       0.03620000
H        0.87460000      -4.41510000       2.15860000
H        2.43250000      -3.75830000       1.69240000
H        2.16210000      -3.56610000       4.35260000
