16
Properties=species:S:1:pos:R:3 gdb_49986=T pbc="F F F"
O       -0.20670000       0.33020000       0.77510000
C        0.30640000       0.76840000      -0.22290000
C        1.43720000       1.73770000      -0.22050000
N        2.23940000       1.76390000      -1.47100000
C        1.42870000       2.91320000      -1.14390000
C        0.29770000       3.43920000      -2.05050000
C        0.77640000       4.86230000      -1.70250000
O        0.40600000       5.95770000      -1.99910000
C        1.92050000       4.33440000      -0.80700000
H       -0.03330000       0.48190000      -1.24290000
H        1.93370000       1.86190000       0.73900000
H        3.21910000       1.92440000      -1.24810000
H        0.40500000       3.17700000      -3.10750000
H       -0.72800000       3.22580000      -1.73600000
H        1.85040000       4.64220000       0.24060000
H        2.91990000       4.58350000      -1.18080000
