18
Properties=species:S:1:pos:R:3 gdb_54945=T pbc="F F F"
C       -0.24230000       1.45500000      -0.07790000
C        0.10360000      -0.01340000       0.05220000
O        0.37380000      -0.52310000       1.11940000
C        0.09480000      -0.80120000      -1.22440000
C        0.83270000      -2.11310000      -1.28990000
C       -0.67380000      -2.14940000      -1.28780000
C       -1.43570000      -2.69790000      -0.09170000
C       -1.31220000      -2.39000000      -2.56100000
N       -1.83490000      -2.58420000      -3.57480000
H        0.48000000       1.95550000      -0.73340000
H       -1.22680000       1.57320000      -0.54500000
H       -0.23610000       1.92790000       0.90430000
H        0.04090000      -0.21480000      -2.13460000
H        1.35920000      -2.35560000      -2.20460000
H        1.30910000      -2.42330000      -0.36630000
H       -0.91740000      -2.44670000       0.83340000
H       -2.44900000      -2.28800000      -0.05220000
H       -1.51370000      -3.78600000      -0.17200000
