24
Properties=species:S:1:pos:R:3 gdb_13622=T pbc="F F F"
C        0.67280000       1.78440000      -3.59340000
C        1.05620000       0.55970000      -2.75680000
C        0.26220000      -0.72240000      -3.07950000
C        0.51350000      -1.22200000      -4.51120000
C        0.59720000      -1.80990000      -2.07120000
C       -0.02940000      -1.83590000      -0.69700000
C       -0.34780000      -2.92960000      -1.69020000
C       -1.74200000      -3.07890000      -2.26150000
H        0.88870000       1.64180000      -4.65680000
H       -0.39630000       2.00820000      -3.49970000
H        1.22540000       2.67030000      -3.26450000
H        2.12870000       0.35300000      -2.87890000
H        0.91290000       0.79270000      -1.69470000
H       -0.80480000      -0.47680000      -2.98650000
H       -0.05720000      -2.13310000      -4.71400000
H        0.23050000      -0.47760000      -5.26120000
H        1.57500000      -1.45620000      -4.65870000
H        1.64660000      -2.10030000      -2.10450000
H        0.58800000      -2.06310000       0.16560000
H       -0.81360000      -1.11020000      -0.49790000
H        0.14010000      -3.88240000      -1.49810000
H       -2.37780000      -3.65460000      -1.57950000
H       -2.22820000      -2.11160000      -2.41760000
H       -1.73070000      -3.60410000      -3.22340000
