23
Properties=species:S:1:pos:R:3 gdb_112749=T pbc="F F F"
C        0.02370000       1.33230000      -0.24830000
O       -0.01920000       0.03410000       0.29830000
C       -1.28070000      -0.57210000       0.19700000
C       -1.71880000      -1.17750000      -1.17020000
C       -2.18640000      -2.46010000      -0.41480000
C       -1.87860000      -3.81490000      -1.03420000
C       -1.36620000      -1.97380000       0.79610000
C       -0.20020000      -2.67730000       1.42770000
C       -1.43560000      -2.36270000       2.24010000
H        1.03320000       1.72000000      -0.09030000
H       -0.18970000       1.33270000      -1.32790000
H       -0.69690000       2.00470000       0.24390000
H       -2.05390000       0.10050000       0.60510000
H       -2.46110000      -0.63620000      -1.76140000
H       -0.83830000      -1.38160000      -1.78730000
H       -3.25840000      -2.39440000      -0.19170000
H       -0.81580000      -3.90270000      -1.28280000
H       -2.13330000      -4.63560000      -0.35350000
H       -2.45270000      -3.96230000      -1.95560000
H       -0.01750000      -3.71260000       1.15860000
H        0.69300000      -2.08890000       1.60380000
H       -1.37250000      -1.57350000       2.98330000
H       -2.08820000      -3.18550000       2.51670000
