22
Properties=species:S:1:pos:R:3 gdb_76141=T pbc="F F F"
C        1.38730000       1.45190000      -0.17740000
C        0.84520000       0.04140000      -0.08560000
C        1.74330000      -1.18760000       0.09680000
C        3.22460000      -1.07430000       0.25870000
N        3.92590000      -2.10930000      -0.30360000
O        3.80610000      -0.15470000       0.81530000
C        0.75300000      -0.75100000       1.18780000
C        1.25880000      -0.17600000       2.49820000
C       -0.46190000      -1.64840000       1.35560000
H        2.28970000       1.58240000       0.41830000
H        1.63860000       1.69400000      -1.21570000
H        0.63070000       2.17150000       0.15530000
H        0.03040000      -0.14680000      -0.78260000
H        1.43250000      -2.06380000      -0.46610000
H        3.47560000      -2.94090000      -0.64200000
H        4.92020000      -2.13220000      -0.14560000
H        2.19470000       0.36690000       2.37840000
H        0.50610000       0.49590000       2.92700000
H        1.43020000      -0.98000000       3.22350000
H       -0.23710000      -2.50130000       2.00670000
H       -1.28970000      -1.09360000       1.81310000
H       -0.81450000      -2.04000000       0.39600000
