18
Properties=species:S:1:pos:R:3 gdb_99095=T pbc="F F F"
C        0.12700000       1.36110000       0.02880000
O       -0.05210000      -0.02920000      -0.25840000
C       -1.27110000      -0.52090000       0.06580000
O       -2.17060000       0.12800000       0.55150000
N       -1.32420000      -1.85390000      -0.22810000
C       -2.55150000      -2.62020000      -0.11580000
C       -3.07460000      -3.13590000      -1.45560000
C       -2.35630000      -3.73720000       0.90870000
O       -2.79600000      -4.85100000       0.79870000
H        1.14210000       1.59850000      -0.29040000
H       -0.59680000       1.96800000      -0.52070000
H        0.00940000       1.55530000       1.09790000
H       -0.53430000      -2.25080000      -0.71230000
H       -3.27550000      -1.92500000       0.33160000
H       -3.31400000      -2.30120000      -2.11840000
H       -2.33140000      -3.77250000      -1.94680000
H       -3.97000000      -3.74090000      -1.29930000
H       -1.75390000      -3.42500000       1.79160000
