20
Properties=species:S:1:pos:R:3 gdb_84830=T pbc="F F F"
C       -0.08100000       1.49410000       0.04770000
C       -0.00450000      -0.01810000       0.04430000
C       -1.10410000      -0.70640000      -0.75050000
C       -1.21440000      -2.18430000      -0.50540000
C       -0.67070000      -2.79890000       0.54280000
C        0.11830000      -2.10010000       1.61950000
O        1.28350000      -2.84920000       1.98090000
C        0.59620000      -0.72430000       1.21100000
N        1.36490000      -0.55530000      -0.03470000
H        0.77900000       1.91810000       0.57120000
H       -0.07670000       1.88520000      -0.97650000
H       -0.99740000       1.84200000       0.53780000
H       -2.06650000      -0.22630000      -0.51790000
H       -0.94480000      -0.51800000      -1.82210000
H       -1.78320000      -2.75920000      -1.23220000
H       -0.79510000      -3.87300000       0.66930000
H       -0.52550000      -1.97800000       2.50880000
H        0.99430000      -3.70050000       2.32590000
H        0.97690000      -0.13230000       2.04060000
H        1.37140000      -1.44150000      -0.53730000
