18
Properties=species:S:1:pos:R:3 gdb_85286=T pbc="F F F"
C        0.15390000       1.54660000      -0.04100000
C       -0.00170000       0.04110000       0.08800000
O        0.49780000      -0.59960000      -1.10460000
C        1.12070000      -1.79010000      -0.80570000
N        1.38720000      -2.68990000      -1.64970000
C        1.42390000      -1.82790000       0.64690000
C        2.23650000      -0.64290000       1.16700000
C        0.74200000      -0.62660000       1.24400000
O        0.07700000      -0.70830000       2.46170000
H        1.20670000       1.82810000      -0.13250000
H       -0.38030000       1.91460000      -0.92070000
H       -0.26560000       2.04020000       0.84190000
H       -1.06410000      -0.21640000       0.19750000
H        1.03330000      -2.42700000      -2.57130000
H        1.49700000      -2.78180000       1.14910000
H        2.76100000      -0.82500000       2.09830000
H        2.75730000      -0.01000000       0.45610000
H        0.29440000       0.07430000       2.97920000
