20
Properties=species:S:1:pos:R:3 gdb_124603=T pbc="F F F"
C       -0.09420000       1.57850000       0.14080000
C       -0.04000000       0.05250000       0.01750000
C        0.78300000      -0.59010000       1.14060000
N       -1.39180000      -0.50410000      -0.01250000
N       -2.26890000      -0.21170000       0.98220000
C       -3.38520000      -0.84460000       0.64310000
C       -3.24220000      -1.57210000      -0.55470000
C       -1.93530000      -1.33310000      -0.94450000
N       -1.21340000      -1.72620000      -2.08280000
H        0.91930000       1.99070000       0.12830000
H       -0.65680000       2.01510000      -0.68890000
H       -0.58190000       1.86610000       1.07470000
H        0.39710000      -0.20620000      -0.95200000
H        0.84250000      -1.67590000       1.01670000
H        1.80080000      -0.18830000       1.14640000
H        0.31870000      -0.38380000       2.10860000
H       -4.25660000      -0.76550000       1.27750000
H       -3.96690000      -2.19090000      -1.05900000
H       -1.80660000      -2.23580000      -2.72490000
H       -0.40960000      -2.30500000      -1.86360000
