20
Properties=species:S:1:pos:R:3 gdb_61520=T pbc="F F F"
C       -0.10120000       1.64880000      -0.22690000
C       -0.01430000       0.11580000      -0.10210000
C       -1.38830000      -0.57940000       0.07410000
C       -2.09680000      -0.18750000       1.35240000
O       -1.23090000      -0.39670000       2.44140000
C       -3.07650000       0.95760000       1.38300000
C       -3.56490000      -0.47870000       1.49810000
C        0.67390000      -0.45190000      -1.26580000
N        1.20440000      -0.89590000      -2.19200000
H        0.89200000       2.08140000      -0.37070000
H       -0.72400000       1.93810000      -1.07880000
H       -0.53430000       2.07010000       0.68210000
H        0.58680000      -0.12650000       0.78110000
H       -2.03010000      -0.35340000      -0.78330000
H       -1.22850000      -1.66310000       0.08030000
H       -1.66870000      -0.11870000       3.25150000
H       -3.10720000       1.57250000       2.27790000
H       -3.28260000       1.50340000       0.46870000
H       -4.10160000      -0.91400000       0.66160000
H       -3.91230000      -0.81590000       2.46970000
