17
Properties=species:S:1:pos:R:3 gdb_110593=T pbc="F F F"
C        0.16420000       1.35110000       0.19070000
O       -0.29420000       0.08380000      -0.23120000
C        0.47210000      -0.47980000      -1.26350000
C        1.73850000      -1.28120000      -0.88890000
C        0.91400000      -2.49820000      -0.37130000
O        1.61890000      -3.47360000      -1.19290000
C        1.50090000      -2.30290000      -2.04960000
C        0.06670000      -1.92410000      -1.58300000
O       -1.09660000      -2.38930000      -2.13490000
H        1.17770000       1.30090000       0.61460000
H        0.17190000       2.07400000      -0.63930000
H       -0.52370000       1.70590000       0.96160000
H        0.56710000       0.21150000      -2.11400000
H        2.70460000      -0.95260000      -0.51680000
H        0.62200000      -2.77100000       0.64020000
H        1.92590000      -2.33150000      -3.05140000
H       -1.83220000      -2.04260000      -1.61640000
