16
Properties=species:S:1:pos:R:3 gdb_5537=T pbc="F F F"
C        0.33420000       0.95000000      -0.52380000
N       -0.35550000       0.40180000       0.65300000
C       -1.34660000      -0.55700000       0.37290000
C       -1.29550000      -1.86270000      -0.07410000
O       -0.11830000      -2.50810000      -0.34850000
C       -2.62390000      -2.35510000      -0.17590000
C       -3.46140000      -1.32700000       0.21020000
N       -2.68660000      -0.25400000       0.53670000
H        1.08060000       1.67890000      -0.19210000
H        0.83370000       0.18660000      -1.13700000
H       -0.39140000       1.47240000      -1.15430000
H        0.32800000       0.02510000       1.30030000
H       -0.32220000      -3.40770000      -0.61810000
H       -2.93000000      -3.33980000      -0.49750000
H       -4.53640000      -1.28580000       0.27420000
H       -3.00360000       0.63410000       0.88420000
