15
Properties=species:S:1:pos:R:3 gdb_27370=T pbc="F F F"
C       -0.01840000       1.45150000       0.14400000
C       -0.00780000      -0.03120000      -0.04630000
N       -0.08880000      -0.60420000      -1.17250000
C       -0.07500000      -2.03520000      -1.25110000
O       -0.15960000      -2.58280000      -2.32940000
C        0.03810000      -2.72910000       0.01840000
C        0.12960000      -2.02750000       1.16980000
N        0.30890000      -2.51490000       2.43610000
O        0.10270000      -0.66950000       1.17480000
H        0.90080000       1.77780000       0.64120000
H       -0.10460000       1.93560000      -0.82720000
H       -0.85740000       1.74820000       0.78170000
H        0.05400000      -3.81090000       0.02500000
H        0.08290000      -3.48770000       2.57080000
H        0.01290000      -1.90590000       3.18400000
