16
Properties=species:S:1:pos:R:3 gdb_96888=T pbc="F F F"
C        0.01440000       1.44390000       0.00680000
N        0.06660000      -0.00740000       0.04020000
C        0.57590000      -0.63780000      -0.92600000
O        1.12660000      -0.06320000      -2.05910000
C        1.59740000      -1.09430000      -2.94330000
C        1.28550000      -2.38490000      -2.21360000
C        0.69900000      -2.09410000      -1.05560000
C        0.95910000      -0.99900000      -4.25480000
C        0.44880000      -0.94410000      -5.34050000
H        0.73280000       1.84860000       0.73090000
H        0.22890000       1.88170000      -0.97430000
H       -0.97890000       1.76930000       0.33360000
H        2.68250000      -0.95830000      -3.06230000
H        1.51680000      -3.35450000      -2.63090000
H        0.34330000      -2.76950000      -0.29190000
H       -0.00740000      -0.88760000      -6.29820000
