17
Properties=species:S:1:pos:R:3 gdb_123841=T pbc="F F F"
C       -0.02630000       1.39500000       0.01990000
C        1.40150000       1.96990000       0.03600000
C        2.18140000       1.28770000      -1.04720000
C        3.37040000       1.55690000      -1.69240000
N        3.55020000       0.55330000      -2.58920000
N        2.55910000      -0.36240000      -2.57540000
C        1.73130000       0.08550000      -1.63810000
C        0.43910000      -0.56200000      -1.23510000
O       -0.01890000      -0.02440000      -0.00160000
H       -0.57400000       1.68180000       0.92170000
H       -0.57570000       1.78600000      -0.85260000
H        1.36440000       3.05740000      -0.09960000
H        1.85140000       1.78550000       1.01980000
H        4.08520000       2.35850000      -1.59000000
H        4.31860000       0.42760000      -3.22530000
H       -0.32480000      -0.42100000      -2.01900000
H        0.55900000      -1.63810000      -1.08100000
