15
Properties=species:S:1:pos:R:3 gdb_50425=T pbc="F F F"
O        0.14010000      -0.22950000      -0.11140000
C        0.01160000       0.97010000      -0.09760000
C        1.21540000       1.91090000      -0.09610000
N        2.47060000       1.15930000      -0.09490000
C        3.17430000       1.54780000      -1.21640000
N        2.72960000       2.52870000      -1.90640000
C        1.42180000       2.87860000      -1.31790000
C        0.39950000       2.77040000      -2.43750000
O       -0.58290000       2.07410000      -2.40430000
H       -0.97190000       1.45520000       0.02930000
H        1.11750000       2.50780000       0.82160000
H        2.36580000       0.16590000       0.08350000
H        4.10490000       1.03990000      -1.45250000
H        1.43870000       3.92670000      -0.99030000
H        0.65420000       3.38060000      -3.32740000
