16
Properties=species:S:1:pos:R:3 gdb_33976=T pbc="F F F"
C       -0.08510000      -1.18160000      -0.08240000
C        0.01330000       0.01610000      -0.02390000
C        0.05710000       1.42890000       0.11830000
O        0.28600000       2.27780000      -1.02670000
C        1.15690000       2.42710000       0.09400000
C        0.44500000       3.32250000       1.12320000
C       -0.69810000       2.28030000       1.13940000
C       -2.15710000       2.36910000       1.32410000
N       -1.28840000       1.77150000       2.36580000
H       -0.15120000      -2.23970000      -0.15070000
H        2.21730000       2.27770000      -0.07210000
H        0.95210000       3.36790000       2.08970000
H        0.20700000       4.32790000       0.76980000
H       -2.61280000       3.31470000       1.60380000
H       -2.78740000       1.71520000       0.72680000
H       -1.34440000       0.75470000       2.32700000
