17
Properties=species:S:1:pos:R:3 gdb_54396=T pbc="F F F"
C       -0.62270000       1.33820000       0.05330000
C        0.22060000       0.08830000      -0.02650000
O        0.92900000      -0.30660000       0.87210000
C        0.14290000      -0.70130000      -1.30950000
C       -0.86150000      -1.89080000      -1.52330000
C       -0.53910000      -1.42940000      -2.97560000
O       -0.49320000      -0.05390000      -2.46430000
C        0.95930000      -1.77520000      -3.08460000
C        1.42580000      -1.28610000      -1.93560000
H       -0.34250000       2.02340000      -0.75400000
H       -1.67770000       1.09420000      -0.11030000
H       -0.48850000       1.81450000       1.02490000
H       -0.55450000      -2.88570000      -1.19900000
H       -1.88050000      -1.64480000      -1.21430000
H       -1.20670000      -1.57430000      -3.82340000
H        1.45680000      -2.29000000      -3.89290000
H        2.40930000      -1.26970000      -1.49290000
