19
Properties=species:S:1:pos:R:3 gdb_5803=T pbc="F F F"
C       -0.05950000       1.56570000       0.07140000
C        0.03770000       0.03650000       0.06140000
C        0.70230000      -0.50870000       1.32970000
C       -1.34410000      -0.59070000      -0.13600000
O        0.76750000      -0.41580000      -1.12610000
C        2.06040000      -0.07120000      -1.31530000
N        2.52560000      -0.67490000      -2.45440000
O        2.73610000       0.63120000      -0.59610000
H        0.92420000       2.01950000       0.18910000
H       -0.50680000       1.92390000      -0.86120000
H       -0.69970000       1.88710000       0.89900000
H        0.08750000      -0.26160000       2.20090000
H        0.78920000      -1.59830000       1.27400000
H        1.69550000      -0.08150000       1.46610000
H       -1.80000000      -0.23450000      -1.06410000
H       -1.26920000      -1.68050000      -0.18450000
H       -2.00060000      -0.32440000       0.69710000
H        1.85910000      -1.04640000      -3.10960000
H        3.39440000      -0.31980000      -2.81520000
