14
Properties=species:S:1:pos:R:3 gdb_35448=T pbc="F F F"
C        0.05290000      -1.22440000      -0.12580000
C        0.01570000      -0.02700000      -0.03310000
C       -0.03600000       1.41320000       0.08630000
C       -0.23070000       2.06160000       1.51710000
C        1.09130000       2.80710000       1.31930000
O        2.10930000       1.82870000       1.11500000
C        1.30910000       2.18820000      -0.00850000
C        1.94510000       2.67540000      -1.19180000
N        2.41530000       3.06460000      -2.17390000
H        0.09480000      -2.28220000      -0.21190000
H       -0.75820000       1.83980000      -0.61590000
H       -1.10580000       2.71190000       1.55590000
H       -0.23760000       1.36510000       2.35580000
H        1.40030000       3.77990000       1.68160000
