16
Properties=species:S:1:pos:R:3 gdb_29944=T pbc="F F F"
C       -0.00570000       1.45240000      -0.00230000
N        0.00480000      -0.00610000      -0.02850000
C       -0.09920000      -0.69730000      -1.19320000
C       -0.09170000      -2.05580000      -1.24090000
C        0.03060000      -2.76300000      -0.01280000
O        0.03360000      -4.11350000      -0.10760000
C        0.13660000      -2.08630000       1.17220000
C        0.13000000      -0.64900000       1.23620000
O        0.21930000       0.03760000       2.24520000
H        0.91800000       1.82630000       0.44550000
H       -0.10500000       1.82830000      -1.02150000
H       -0.83610000       1.81080000       0.61060000
H       -0.18930000      -0.09610000      -2.09030000
H       -0.17550000      -2.58850000      -2.17690000
H        0.12030000      -4.49180000       0.77490000
H        0.23090000      -2.60330000       2.12090000
