20
Properties=species:S:1:pos:R:3 gdb_63233=T pbc="F F F"
C        0.17600000       1.45420000      -0.07220000
C       -0.05310000      -0.06320000      -0.00090000
C       -1.56410000      -0.35530000       0.10010000
N        0.39890000      -0.63670000      -1.27650000
C        1.09800000      -1.68660000      -1.30790000
O        1.60920000      -2.42940000      -0.29340000
C        1.45050000      -1.91860000       1.01230000
C        2.15290000      -0.63800000       1.36480000
C        0.64430000      -0.67260000       1.21640000
H        1.23930000       1.68370000      -0.18410000
H       -0.35380000       1.87210000      -0.93270000
H       -0.18580000       1.94380000       0.83820000
H       -2.07240000      -0.00680000      -0.80240000
H       -1.74650000      -1.42960000       0.20100000
H       -2.00080000       0.15310000       0.96620000
H        1.38680000      -2.13300000      -2.25790000
H        1.40990000      -2.73660000       1.72130000
H        2.57800000      -0.53450000       2.35680000
H        2.72930000      -0.16900000       0.57380000
H        0.07350000      -0.61650000       2.13880000
