12
Properties=species:S:1:pos:R:3 gdb_128741=T pbc="F F F"
C       -0.04020000       1.38810000       0.05500000
O        0.01500000      -0.04670000      -0.02220000
C        0.61670000      -0.57330000      -1.07550000
N        1.12970000       0.18400000      -1.99070000
O        1.73680000      -0.44150000      -3.05220000
N        1.80990000      -1.84800000      -3.16130000
N        1.31890000      -2.56530000      -2.28540000
C        0.65760000      -2.04270000      -1.12660000
O        0.19630000      -2.78420000      -0.30250000
H        0.96850000       1.80870000       0.07520000
H       -0.58070000       1.79640000      -0.80290000
H       -0.56780000       1.60320000       0.98270000
