19
Properties=species:S:1:pos:R:3 gdb_84671=T pbc="F F F"
C        0.22610000       1.54990000      -0.01170000
C        0.03610000       0.01820000      -0.01910000
C        0.48660000      -0.58140000      -1.33080000
C        1.59490000      -1.31090000      -1.45550000
C        2.43580000      -1.55790000      -0.23860000
O        2.96310000      -0.30210000       0.33590000
C        2.18260000      -0.50850000       1.51170000
C        1.63240000      -1.82500000       1.04660000
C        0.71240000      -0.63270000       1.19240000
H        1.28770000       1.79210000      -0.10080000
H       -0.30930000       2.02020000      -0.84320000
H       -0.15490000       1.97950000       0.92100000
H       -1.04320000      -0.17620000       0.06560000
H       -0.14060000      -0.37550000      -2.19530000
H        1.90550000      -1.71900000      -2.41190000
H        3.26300000      -2.24970000      -0.41170000
H        2.59210000      -0.16990000       2.45630000
H        1.50070000      -2.78260000       1.53130000
H        0.09550000      -0.67170000       2.08770000
