16
Properties=species:S:1:pos:R:3 gdb_127242=T pbc="F F F"
C        0.17290000       1.39060000       0.00030000
N        0.00240000      -0.04750000      -0.01390000
C        0.43090000      -0.92530000      -0.95260000
C        0.09520000      -2.18800000      -0.50530000
C        0.33360000      -3.51300000      -1.18130000
C        1.04370000      -3.38010000      -2.45340000
N        1.60390000      -3.25610000      -3.45620000
C       -0.53910000      -1.95600000       0.73430000
N       -0.59060000      -0.65990000       1.02790000
H        0.98790000       1.68160000       0.67040000
H        0.39900000       1.73340000      -1.01070000
H       -0.75180000       1.85650000       0.34480000
H        0.93060000      -0.60360000      -1.85260000
H        0.91710000      -4.18240000      -0.53640000
H       -0.61400000      -4.03160000      -1.37600000
H       -0.96360000      -2.67790000       1.41760000
