15
Properties=species:S:1:pos:R:3 gdb_75854=T pbc="F F F"
C        0.00270000       1.46120000      -0.03360000
N        0.02400000       0.01330000      -0.03040000
C       -1.11710000      -0.78290000      -0.09890000
O       -2.25480000      -0.38480000      -0.16870000
C       -0.56000000      -2.20660000      -0.06320000
N        0.89350000      -2.09090000       0.02520000
C        1.14150000      -0.82910000       0.03870000
C        2.44570000      -0.26200000       0.11750000
C        3.53250000       0.24740000       0.18300000
H        0.54890000       1.86280000      -0.89200000
H       -1.04580000       1.75830000      -0.09800000
H        0.44060000       1.86500000       0.88380000
H       -0.96100000      -2.75840000       0.79460000
H       -0.85400000      -2.76060000      -0.96180000
H        4.50130000       0.68030000       0.24150000
