15
Properties=species:S:1:pos:R:3 gdb_3605=T pbc="F F F"
O       -0.16390000       1.41440000       0.44290000
C       -0.05840000       0.05650000       0.15740000
C       -0.61260000      -0.99440000       1.07940000
C       -1.25540000      -0.76490000      -0.27980000
C       -2.59550000      -0.10870000      -0.38320000
C       -3.70500000      -0.39530000       0.53780000
O       -2.94340000       0.81170000       0.66600000
H       -1.02830000       1.56520000       0.84610000
H        0.88950000      -0.14440000      -0.33110000
H       -0.06040000      -1.91290000       1.24600000
H       -1.15720000      -0.62940000       1.94490000
H       -1.08370000      -1.51560000      -1.04680000
H       -2.85360000       0.25860000      -1.37710000
H       -4.73390000      -0.25080000       0.21390000
H       -3.55770000      -1.12400000       1.33230000
