20
Properties=species:S:1:pos:R:3 gdb_57447=T pbc="F F F"
C       -0.13520000       1.42780000      -0.15340000
C       -0.03370000      -0.10070000      -0.10530000
C        0.52990000      -0.56810000       1.24390000
O       -1.36530000      -0.57380000      -0.28350000
C        0.88310000      -0.59650000      -1.23150000
C        0.80520000      -1.99880000      -1.76720000
N        0.38890000      -0.87220000      -2.56650000
C       -0.90210000      -0.72450000      -3.05600000
O       -1.56370000      -1.62760000      -3.50500000
H        0.85180000       1.88760000      -0.05080000
H       -0.57290000       1.75490000      -1.10000000
H       -0.77370000       1.78380000       0.65930000
H       -0.09900000      -0.19950000       2.05910000
H        0.56240000      -1.66220000       1.29530000
H        1.54850000      -0.19920000       1.39960000
H       -1.40080000      -1.50970000      -0.05930000
H        1.86750000      -0.12880000      -1.21550000
H        1.71030000      -2.51170000      -2.08060000
H        0.01260000      -2.65260000      -1.40960000
H       -1.21670000       0.33360000      -3.08360000
