20
Properties=species:S:1:pos:R:3 gdb_14726=T pbc="F F F"
C       -0.13060000       1.56810000       0.05120000
C        0.06890000       0.04270000      -0.01470000
C        0.78710000      -0.48940000       1.13950000
C        1.38470000      -0.89350000       2.10430000
C        2.09870000      -1.42400000       3.25940000
C        2.02070000      -2.95200000       3.34160000
O        2.73660000      -3.35730000       4.48570000
C        2.74580000      -4.75340000       4.65990000
H        0.83260000       2.08360000       0.09590000
H       -0.67090000       1.92160000      -0.83220000
H       -0.70270000       1.84670000       0.94030000
H       -0.90890000      -0.44960000      -0.09570000
H        0.61090000      -0.21490000      -0.93390000
H        3.15580000      -1.13330000       3.22690000
H        1.69240000      -1.00640000       4.18880000
H        0.96830000      -3.27380000       3.40110000
H        2.44850000      -3.40130000       2.43050000
H        3.32080000      -4.96710000       5.56420000
H        1.72820000      -5.15770000       4.78180000
H        3.21790000      -5.26880000       3.80830000
