17
Properties=species:S:1:pos:R:3 gdb_77027=T pbc="F F F"
O       -0.20660000       1.39430000       0.11320000
C       -0.13130000       0.00930000       0.03330000
C       -1.40600000      -0.78210000      -0.04200000
C       -2.75360000      -0.07940000       0.00930000
C       -3.34440000      -0.12950000       1.34250000
C       -3.82270000      -0.19020000       2.44330000
C       -0.51200000      -0.67170000      -1.28230000
C       -0.86680000       0.17290000      -2.38110000
C       -1.12100000       0.93230000      -3.28120000
H       -0.04300000       1.75980000      -0.76550000
H        0.70720000      -0.41660000       0.58020000
H       -1.38860000      -1.75910000       0.43060000
H       -2.62460000       0.96320000      -0.29690000
H       -3.43870000      -0.53800000      -0.71450000
H       -4.24930000      -0.22900000       3.41460000
H        0.04590000      -1.56440000      -1.54850000
H       -1.37000000       1.57140000      -4.09210000
