23
Properties=species:S:1:pos:R:3 gdb_58311=T pbc="F F F"
C        0.10580000       1.51540000      -0.09850000
C        0.00540000      -0.01100000       0.03860000
C        0.75310000      -0.48400000       1.29300000
C       -1.45880000      -0.51330000       0.03800000
C       -2.29070000       0.04710000      -1.12860000
N       -1.44560000      -1.98540000       0.07440000
C       -2.70560000      -2.60710000       0.45430000
C       -2.56570000      -4.06580000       0.52000000
N       -2.46520000      -5.21610000       0.54830000
H        1.15020000       1.83350000      -0.02190000
H       -0.27860000       1.87890000      -1.05470000
H       -0.44890000       2.01970000       0.70240000
H        0.49410000      -0.46010000      -0.84040000
H        0.66640000      -1.56450000       1.41700000
H        1.81380000      -0.22030000       1.23480000
H        0.34340000      -0.00430000       2.19080000
H       -1.92120000      -0.18940000       0.98240000
H       -2.41830000       1.13000000      -1.05600000
H       -1.80770000      -0.17190000      -2.08880000
H       -3.29250000      -0.39310000      -1.15020000
H       -1.13690000      -2.35220000      -0.82110000
H       -2.98780000      -2.24580000       1.45110000
H       -3.56180000      -2.38880000      -0.20860000
