15
Properties=species:S:1:pos:R:3 gdb_20260=T pbc="F F F"
C       -0.01440000       1.52450000       0.00010000
C        1.52680000       1.49770000       0.00940000
O        1.99180000       1.48240000       1.35230000
C        1.68810000       0.20000000       1.84330000
C        1.81780000      -0.86230000       0.79700000
C        0.43510000      -0.50750000       1.35500000
N       -0.04070000       0.01860000       0.04730000
C        1.40580000      -0.02490000      -0.41350000
H       -0.49220000       2.03950000       0.83720000
H       -0.44800000       1.86160000      -0.94660000
H        2.10810000       2.22490000      -0.56110000
H        2.02120000       0.04370000       2.86160000
H        2.41940000      -1.75900000       0.83500000
H       -0.23290000      -1.05880000       2.00880000
H        1.60720000      -0.33160000      -1.43850000
