22
Properties=species:S:1:pos:R:3 gdb_29685=T pbc="F F F"
C        0.12520000       1.42430000       0.02760000
N        0.05550000      -0.02020000      -0.00010000
C       -0.09010000      -0.80700000      -1.12650000
C       -0.17070000      -0.24770000      -2.50920000
C       -0.13900000      -2.11490000      -0.70670000
C       -0.02320000      -2.13940000       0.71440000
C       -0.02470000      -3.37040000       1.57130000
C        0.09460000      -0.82750000       1.12730000
C        0.24370000      -0.23970000       2.49180000
H        1.02670000       1.76710000       0.54680000
H        0.15580000       1.80810000      -0.99220000
H       -0.74520000       1.86190000       0.53120000
H        0.73000000       0.31050000      -2.79680000
H       -0.28370000      -1.06930000      -3.22040000
H       -1.02690000       0.42500000      -2.64860000
H       -0.24560000      -2.97290000      -1.35510000
H        0.01240000      -3.12870000       2.63740000
H       -0.92510000      -3.97470000       1.40700000
H        0.83450000      -4.01790000       1.35600000
H        1.18560000       0.31220000       2.61320000
H       -0.56800000       0.45630000       2.74200000
H        0.23500000      -1.03100000       3.24410000
