12
Properties=species:S:1:pos:R:3 gdb_5035=T pbc="F F F"
O       -0.04500000       1.35290000       0.01050000
C        0.02710000       0.00240000       0.00290000
C        1.18500000      -0.69260000      -0.00800000
O        1.24940000      -2.05190000      -0.01570000
C        0.09240000      -2.73740000      -0.01230000
C       -1.11900000      -2.15380000      -0.00160000
C       -1.27600000      -0.70140000       0.00710000
O       -2.34620000      -0.11650000       0.01690000
H        0.84210000       1.73050000       0.00710000
H        2.17350000      -0.24870000      -0.01170000
H        0.26970000      -3.80560000      -0.01910000
H       -2.01380000      -2.76360000       0.00060000
