18
Properties=species:S:1:pos:R:3 gdb_40257=T pbc="F F F"
C        0.08720000       1.47060000      -0.00630000
O        1.23010000       0.60980000      -0.01130000
C       -0.07570000       0.01370000       0.00610000
C       -0.45440000      -0.72200000       1.27630000
O       -0.01870000      -2.06880000       1.21990000
C       -0.71240000      -2.83400000       0.24790000
C       -0.75460000      -2.17850000      -1.12830000
N       -1.82650000      -1.18640000      -1.33400000
C       -0.42820000      -0.73090000      -1.24470000
H       -0.06550000       2.04030000       0.91020000
H       -0.09030000       2.02520000      -0.92720000
H        0.05220000      -0.26160000       2.12800000
H       -1.54370000      -0.66770000       1.42730000
H       -0.17920000      -3.78720000       0.19280000
H       -1.74400000      -3.03100000       0.58050000
H       -0.49470000      -2.81860000      -1.96740000
H       -2.13160000      -1.18510000      -2.30340000
H        0.07330000      -0.37550000      -2.14130000
