20
Properties=species:S:1:pos:R:3 gdb_120073=T pbc="F F F"
C       -0.00230000       1.52230000       0.00730000
C       -0.16190000       0.02660000      -0.20190000
O        0.95100000      -0.44390000      -0.94570000
C        0.94650000      -1.82430000      -1.15020000
C        0.15510000      -2.40700000      -2.33640000
C        1.18600000      -1.91250000      -3.39810000
C        1.30000000      -3.34130000      -3.91550000
N        1.14490000      -3.60370000      -2.41740000
C        1.99490000      -2.33260000      -2.13230000
H        0.92140000       1.73650000       0.55220000
H        0.03930000       2.04210000      -0.95410000
H       -0.84540000       1.91910000       0.58070000
H       -0.21360000      -0.49810000       0.76610000
H       -1.09920000      -0.19120000      -0.73830000
H        0.85780000      -2.38710000      -0.20910000
H       -0.91490000      -2.57460000      -2.47240000
H        1.20830000      -0.95500000      -3.92440000
H        0.47650000      -3.74520000      -4.51400000
H        2.26340000      -3.67430000      -4.31620000
H        3.07820000      -2.40340000      -2.02250000
