23
Properties=species:S:1:pos:R:3 gdb_79347=T pbc="F F F"
C       -0.18780000       1.47290000      -0.04820000
C        0.05460000      -0.04030000      -0.03110000
C        0.96790000      -0.48660000      -1.16810000
C        2.37810000      -0.60570000      -0.61240000
C        2.31590000      -0.24830000       0.86550000
C        0.83610000      -0.53580000       1.21560000
C        0.64220000      -2.05580000       1.36100000
C        1.10300000      -2.80250000       0.07610000
C        1.60520000      -1.84660000      -0.99850000
H        0.75180000       2.03230000       0.00920000
H       -0.69470000       1.77820000      -0.97020000
H       -0.81550000       1.78140000       0.79490000
H       -0.92050000      -0.54450000      -0.07860000
H        0.78480000      -0.10860000      -2.16890000
H        3.24390000      -0.31810000      -1.19860000
H        3.00160000      -0.83690000       1.48680000
H        2.56910000       0.80730000       1.01510000
H        0.51570000      -0.02710000       2.12980000
H        1.20590000      -2.41200000       2.23030000
H       -0.41250000      -2.26870000       1.56720000
H        1.89850000      -3.51710000       0.31740000
H        0.27990000      -3.40020000      -0.33230000
H        1.92590000      -2.32840000      -1.91820000
