23
Properties=species:S:1:pos:R:3 gdb_121935=T pbc="F F F"
C        0.08240000       1.53050000      -0.09700000
C        0.01340000       0.00160000      -0.05650000
C       -1.42020000      -0.53280000       0.02700000
C       -1.49630000      -2.06100000       0.07500000
C       -2.93700000      -2.59410000       0.10910000
O       -3.68840000      -2.16600000      -1.01470000
C       -2.95530000      -4.11370000       0.19760000
C       -4.09730000      -4.89980000      -0.27550000
O       -2.90750000      -4.77720000      -1.07420000
H        1.11640000       1.88380000      -0.16070000
H       -0.45970000       1.92780000      -0.96240000
H       -0.36500000       1.97080000       0.80120000
H        0.50150000      -0.41140000      -0.94940000
H        0.59130000      -0.36880000       0.80110000
H       -1.91130000      -0.11770000       0.91880000
H       -2.00170000      -0.17840000      -0.83170000
H       -0.98750000      -2.49070000      -0.79930000
H       -0.96090000      -2.43510000       0.95880000
H       -3.45000000      -2.18570000       0.99060000
H       -3.42140000      -2.74930000      -1.73950000
H       -2.30280000      -4.55120000       0.95400000
H       -4.27490000      -5.89300000       0.13220000
H       -4.96700000      -4.38020000      -0.66910000
