18
Properties=species:S:1:pos:R:3 gdb_126750=T pbc="F F F"
C       -0.14950000       1.52780000       0.10950000
C        0.12070000       0.02710000       0.00830000
N        0.73940000      -0.50730000       1.20880000
C        0.25530000      -1.37660000       2.10820000
N        1.13440000      -1.59120000       3.07620000
C        2.16890000      -0.79530000       2.69710000
O        3.31210000      -0.67710000       3.37610000
C        3.41000000      -1.45740000       4.56530000
N        1.99220000      -0.11210000       1.57410000
H        0.78280000       2.06610000       0.29270000
H       -0.58830000       1.89170000      -0.82410000
H       -0.84250000       1.74600000       0.92720000
H       -0.80690000      -0.53250000      -0.14460000
H        0.78350000      -0.18650000      -0.83620000
H       -0.72290000      -1.82670000       2.02380000
H        3.32380000      -2.52580000       4.34470000
H        4.39420000      -1.23770000       4.98090000
H        2.62890000      -1.18510000       5.28180000
