19
Properties=species:S:1:pos:R:3 gdb_30063=T pbc="F F F"
C       -0.46890000       1.28060000       0.23980000
N       -0.04620000      -0.09500000       0.08240000
C       -0.01610000      -0.80830000      -1.08100000
N        0.41890000      -2.03420000      -0.90610000
C        0.69090000      -2.12240000       0.43790000
C        0.41210000      -0.94070000       1.08240000
C        0.52610000      -0.51600000       2.48990000
C       -0.68270000      -0.54380000       3.41410000
C        0.43130000      -1.53900000       3.59320000
H        0.36640000       1.92300000       0.53800000
H       -0.85990000       1.64110000      -0.71360000
H       -1.25510000       1.36150000       0.99580000
H       -0.32650000      -0.37070000      -2.01940000
H        1.07820000      -3.03020000       0.87590000
H        1.21950000       0.30250000       2.67470000
H       -0.78510000       0.25510000       4.14020000
H       -1.61790000      -0.90580000       3.00200000
H        0.23640000      -2.56640000       3.30910000
H        1.09320000      -1.42700000       4.44400000
