19
Properties=species:S:1:pos:R:3 gdb_64078=T pbc="F F F"
C       -0.01640000       1.50950000      -0.04310000
C       -0.05900000      -0.02300000       0.01390000
C       -1.51870000      -0.51880000       0.08830000
O        0.55880000      -0.44580000      -1.20400000
C        0.96710000      -1.79790000      -1.26780000
C        1.85960000      -2.22170000      -0.10470000
O        2.63780000      -3.14790000      -0.20440000
C        1.63590000      -1.48210000       1.14950000
C        0.71690000      -0.51240000       1.21280000
H        1.01830000       1.85780000      -0.09120000
H       -0.53930000       1.85440000      -0.93900000
H       -0.49860000       1.94820000       0.83520000
H       -2.07800000      -0.13840000      -0.77100000
H       -1.57040000      -1.61100000       0.08520000
H       -2.00360000      -0.16600000       1.00350000
H        0.10910000      -2.49120000      -1.30200000
H        1.51960000      -1.91830000      -2.20250000
H        2.20530000      -1.80500000       2.01540000
H        0.48910000      -0.02590000       2.15910000
