17
Properties=species:S:1:pos:R:3 gdb_28351=T pbc="F F F"
C       -0.01980000       1.52680000       0.05210000
C       -0.00390000       0.03330000      -0.05100000
C       -0.03480000      -0.67410000      -1.21370000
N       -0.01820000      -2.04270000      -1.24920000
C        0.02890000      -2.71900000      -0.13870000
C        0.04730000      -4.21640000      -0.15820000
C        0.06630000      -2.07820000       1.18970000
O        0.11070000      -2.65950000       2.26160000
N        0.04570000      -0.68590000       1.11490000
H        0.87700000       1.89980000       0.56070000
H       -0.05910000       1.97550000      -0.94190000
H       -0.88990000       1.87690000       0.62010000
H       -0.07440000      -0.16210000      -2.16760000
H        0.01770000      -4.57540000      -1.18740000
H        0.94400000      -4.59650000       0.34360000
H       -0.80440000      -4.61880000       0.40140000
H        0.07040000      -0.21270000       2.00920000
