20
Properties=species:S:1:pos:R:3 gdb_85454=T pbc="F F F"
C        0.02010000       1.43280000      -0.16260000
N       -0.02100000       0.00770000       0.07960000
C       -1.36480000      -0.55170000       0.14000000
C       -1.16980000      -1.93270000       0.76530000
O       -1.99820000      -2.80070000       0.83750000
C        0.26480000      -1.98210000       1.29070000
C        0.71060000      -0.53210000       1.21840000
C        2.10430000      -0.11820000       1.55650000
C        0.96700000       0.24260000       2.49960000
H        1.05400000       1.78100000      -0.23230000
H       -0.46380000       1.64750000      -1.12090000
H       -0.49740000       2.02800000       0.61250000
H       -2.05380000       0.02120000       0.79340000
H       -1.83120000      -0.61870000      -0.84840000
H        0.30940000      -2.42770000       2.28620000
H        0.85150000      -2.61190000       0.60930000
H        2.80040000      -0.89480000       1.85660000
H        2.56590000       0.68770000       0.99680000
H        0.67910000       1.28690000       2.54420000
H        0.89260000      -0.27910000       3.44810000
