13
Properties=species:S:1:pos:R:3 gdb_2794=T pbc="F F F"
O        0.02780000       1.40950000      -0.14660000
C        0.04610000       0.06250000       0.27420000
C       -1.32960000      -0.56740000       0.08550000
O       -1.73120000      -0.52330000      -1.31260000
C       -1.81140000      -1.95990000      -1.44080000
C       -1.41440000      -2.09960000       0.03470000
O       -1.23760000      -2.99530000       0.80050000
H       -0.29540000       1.40580000      -1.05590000
H        0.79950000      -0.52470000      -0.27420000
H        0.31640000       0.05190000       1.33460000
H       -2.07090000      -0.07770000       0.72960000
H       -2.82080000      -2.30980000      -1.68970000
H       -1.09480000      -2.36980000      -2.16330000
