25
Properties=species:S:1:pos:R:3 gdb_100912=T pbc="F F F"
C       -0.08470000       1.57460000       0.11490000
C        0.12430000       0.05610000       0.08280000
C        0.73120000      -0.47730000      -1.23160000
C        2.19720000      -0.03320000      -1.37330000
C        0.60680000      -2.02550000      -1.32650000
C       -0.84910000      -2.51250000      -1.51750000
C       -1.01480000      -4.02740000      -1.35350000
C        1.40640000      -2.54570000      -2.50540000
O        2.27140000      -3.38210000      -2.45990000
H        0.85590000       2.12600000       0.02520000
H       -0.73940000       1.89910000      -0.70170000
H       -0.55280000       1.88040000       1.05570000
H        0.77520000      -0.24480000       0.91490000
H       -0.84200000      -0.42370000       0.26870000
H        0.15910000      -0.04840000      -2.06840000
H        2.81610000      -0.48730000      -0.59080000
H        2.62500000      -0.32340000      -2.33770000
H        2.29490000       1.05230000      -1.29090000
H        1.03440000      -2.47910000      -0.42350000
H       -1.50210000      -1.99940000      -0.80550000
H       -1.19370000      -2.20560000      -2.51500000
H       -0.38330000      -4.58380000      -2.05320000
H       -0.73840000      -4.34460000      -0.34240000
H       -2.05290000      -4.32690000      -1.52640000
H        1.09960000      -2.09580000      -3.48250000
