20
Properties=species:S:1:pos:R:3 gdb_76621=T pbc="F F F"
C        0.11790000       1.27320000      -0.83500000
C        0.00230000      -0.01610000      -0.04700000
C        1.13090000      -0.98740000      -0.09720000
N        0.90210000      -0.19340000       1.12300000
C       -1.39800000      -0.54120000       0.12410000
C       -1.95040000      -1.01700000       1.46180000
O       -1.21740000      -0.84530000       2.63580000
C       -2.47050000       0.26160000       0.85160000
O       -2.09950000       1.42860000       1.51640000
H        1.16500000       1.57150000      -0.95940000
H       -0.31730000       1.15510000      -1.83310000
H       -0.42410000       2.06970000      -0.31890000
H        0.94030000      -2.05070000       0.01290000
H        1.99390000      -0.73890000      -0.70860000
H        1.55900000       0.57870000       1.18800000
H       -1.75290000      -1.10240000      -0.73790000
H       -2.57380000      -1.90770000       1.46680000
H       -0.28180000      -0.71380000       2.36020000
H       -3.46760000       0.30490000       0.42170000
H       -1.75750000       1.12350000       2.37420000
