18
Properties=species:S:1:pos:R:3 gdb_73063=T pbc="F F F"
C       -0.24250000       1.53740000       0.27930000
C        0.04620000       0.08840000       0.06110000
O       -1.06820000      -0.78340000      -0.11460000
C       -0.40950000      -1.82880000       0.64310000
C        0.85530000      -0.99350000       0.80150000
C        1.27320000      -0.48720000      -0.56070000
O        1.17730000      -1.26250000      -1.72700000
C        2.07290000      -2.26960000      -1.83930000
N        2.13390000      -2.94020000      -2.90570000
H        0.68290000       2.09710000       0.44080000
H       -0.74490000       1.95470000      -0.60040000
H       -0.89630000       1.67900000       1.14480000
H       -0.93270000      -2.00310000       1.58890000
H       -0.33370000      -2.76430000       0.07890000
H        1.49280000      -0.95380000       1.67540000
H        2.13720000       0.17580000      -0.54200000
H        2.68360000      -2.40920000      -0.93720000
H        2.84670000      -3.66210000      -2.81970000
