18
Properties=species:S:1:pos:R:3 gdb_111948=T pbc="F F F"
C       -0.00320000       1.39270000       0.02290000
N        0.00190000      -0.04230000      -0.15640000
C       -1.19060000      -0.86930000      -0.06080000
C       -2.13150000      -0.67260000      -1.26480000
O       -1.51360000      -0.98380000      -2.49140000
C       -0.60960000      -2.25910000       0.03040000
C        0.72170000      -2.21270000       0.03430000
C        1.16710000      -0.79190000      -0.03060000
O        2.29350000      -0.34290000       0.01700000
H        1.03760000       1.72220000       0.00810000
H       -0.54950000       1.90020000      -0.77960000
H       -0.45390000       1.68050000       0.98230000
H       -1.75970000      -0.62870000       0.85330000
H       -2.99270000      -1.34120000      -1.16040000
H       -2.51630000       0.36010000      -1.24990000
H       -0.65900000      -0.53630000      -2.49960000
H       -1.23920000      -3.13900000       0.05930000
H        1.42610000      -3.03010000       0.08740000
