15
Properties=species:S:1:pos:R:3 gdb_966=T pbc="F F F"
C        0.08360000       1.51870000       0.01710000
C        0.04730000       0.02060000       0.01900000
C       -0.04130000      -0.79310000      -1.09550000
N       -0.12120000      -0.54350000      -2.48820000
N       -0.04630000      -2.09960000      -0.66280000
C        0.03690000      -2.14140000       0.70250000
C        0.09640000      -0.84330000       1.15390000
H        1.00360000       1.90820000       0.46950000
H        0.03040000       1.90960000      -1.00430000
H       -0.75410000       1.95100000       0.57750000
H       -0.94080000       0.00450000      -2.72840000
H        0.68860000      -0.03600000      -2.82920000
H       -0.10420000      -2.88310000      -1.28990000
H        0.04700000      -3.07890000       1.23460000
H        0.16760000      -0.53760000       2.18740000
