21
Properties=species:S:1:pos:R:3 gdb_92442=T pbc="F F F"
C       -0.20820000       1.54310000      -0.04780000
C        0.04520000       0.03790000       0.00220000
C        1.06070000      -0.56380000      -0.98700000
C        2.41490000       0.00510000      -0.51960000
C        2.25490000      -0.00860000       1.03680000
O        2.35620000       1.27420000       1.64320000
C        0.81870000      -0.55030000       1.21390000
C        0.85980000      -2.02380000       0.77620000
O        1.04120000      -1.96190000      -0.65330000
H        0.69540000       2.12650000       0.12830000
H       -0.63040000       1.82670000      -1.01840000
H       -0.93320000       1.83020000       0.72110000
H       -0.90960000      -0.48660000      -0.11860000
H        0.84830000      -0.46610000      -2.05270000
H        3.23890000      -0.62050000      -0.87080000
H        2.57690000       1.02790000      -0.87480000
H        2.97780000      -0.69160000       1.50540000
H        3.24320000       1.60920000       1.47700000
H        0.40680000      -0.38150000       2.20920000
H        1.68730000      -2.58540000       1.22830000
H       -0.07720000      -2.54710000       1.00560000
