21
Properties=species:S:1:pos:R:3 gdb_40348=T pbc="F F F"
C       -0.23950000       1.33440000      -0.33640000
C        1.17270000       1.11750000       0.14850000
C        0.21500000      -0.04740000       0.06090000
C       -0.29570000      -0.72240000       1.29660000
C       -0.69190000       0.03050000       2.62270000
C       -1.39690000      -1.33690000       2.91800000
C       -1.73140000      -1.36550000       1.38940000
C       -0.17990000      -2.27290000       2.95140000
C        0.53770000      -1.87450000       1.89930000
H       -0.92430000       1.85590000       0.32340000
H       -0.39750000       1.53810000      -1.38970000
H        1.98230000       1.17650000      -0.57050000
H        1.42750000       1.48680000       1.13610000
H        0.39060000      -0.73450000      -0.76450000
H        0.11770000       0.33210000       3.29170000
H       -1.39710000       0.85350000       2.46480000
H       -2.16240000      -1.44040000       3.68600000
H       -2.52840000      -0.67180000       1.10150000
H       -1.87520000      -2.34340000       0.92330000
H        0.01250000      -3.05390000       3.67340000
H        1.48320000      -2.23160000       1.51550000
