19
Properties=species:S:1:pos:R:3 gdb_116265=T pbc="F F F"
O        0.26250000       1.32320000       0.03480000
C        0.07080000      -0.07030000      -0.13620000
C       -1.40460000      -0.47730000      -0.09220000
C       -1.62840000      -2.01050000      -0.18700000
C       -2.46010000      -2.34470000       1.06580000
O       -3.10640000      -1.12980000       1.43290000
C       -2.16540000      -0.08590000       1.21850000
C       -1.28750000       0.09320000       2.38710000
C       -0.57670000       0.24980000       3.34580000
H        0.14380000       1.50750000       0.97360000
H        0.48150000      -0.32160000      -1.12000000
H        0.63580000      -0.64640000       0.61130000
H       -1.91670000       0.02850000      -0.91480000
H       -2.17130000      -2.26640000      -1.09950000
H       -0.68250000      -2.56090000      -0.19980000
H       -3.23940000      -3.09130000       0.89710000
H       -1.81370000      -2.69410000       1.88420000
H       -2.74290000       0.83270000       1.07990000
H        0.03460000       0.38350000       4.20460000
