17
Properties=species:S:1:pos:R:3 gdb_3271=T pbc="F F F"
C       -0.05120000       1.49190000      -0.02970000
C        1.23010000       2.31440000       0.16670000
C        2.15760000       1.78070000       1.26290000
O        2.71020000       0.52520000       0.87280000
C        2.00740000      -0.60350000       1.31500000
O        0.61810000      -0.51860000       1.15360000
C        0.17880000      -0.02060000      -0.10840000
H       -0.73960000       1.67010000       0.80560000
H       -0.56610000       1.82390000      -0.93980000
H        1.80870000       2.33050000      -0.76520000
H        0.96850000       3.35530000       0.39410000
H        3.00630000       2.45970000       1.39790000
H        1.63390000       1.69620000       2.22490000
H        2.43630000      -1.43890000       0.74100000
H        2.15060000      -0.77940000       2.39190000
H       -0.76500000      -0.53130000      -0.32710000
H        0.89500000      -0.27630000      -0.90120000
