18
Properties=species:S:1:pos:R:3 gdb_96842=T pbc="F F F"
C       -0.04820000       1.39670000       0.05090000
N       -0.05780000      -0.05770000       0.00980000
C        0.50390000      -0.61850000      -0.97580000
C        0.58480000      -2.12640000      -1.17410000
N        1.31040000      -2.25390000      -2.42170000
C        1.64450000      -3.51120000      -3.04160000
C        1.65230000      -1.04010000      -2.95940000
O        2.25620000      -0.81840000      -3.98410000
N        1.15510000      -0.07240000      -2.07090000
H        0.97320000       1.80670000       0.08050000
H       -0.55980000       1.84230000      -0.81620000
H       -0.56610000       1.73800000       0.95000000
H        1.11050000      -2.60120000      -0.33570000
H       -0.41960000      -2.56550000      -1.22930000
H        0.74350000      -4.08800000      -3.28570000
H        2.18770000      -3.29180000      -3.96210000
H        2.27910000      -4.12260000      -2.38770000
H        1.28510000       0.90750000      -2.25290000
