21
Properties=species:S:1:pos:R:3 gdb_91711=T pbc="F F F"
C       -0.23850000       1.55280000      -0.00850000
C        0.03540000       0.04920000       0.00220000
C        0.77200000      -0.48670000      -1.27190000
C        1.93070000      -1.35690000      -0.69650000
C        1.30240000      -1.88660000       0.61200000
C        0.93080000      -0.48490000       1.15390000
C        2.30810000       0.21040000       1.13670000
C        2.94390000      -0.35250000      -0.14890000
O        4.00740000      -0.04680000      -0.62160000
H        0.67420000       2.13710000      -0.16390000
H       -0.92910000       1.81290000      -0.81760000
H       -0.69240000       1.88180000       0.93270000
H       -0.93020000      -0.46310000       0.08720000
H        0.11300000      -1.10230000      -1.89060000
H        1.14760000       0.32220000      -1.90630000
H        2.36210000      -2.06950000      -1.39800000
H        0.43080000      -2.52460000       0.43840000
H        2.01240000      -2.42540000       1.24740000
H        0.43970000      -0.46750000       2.12890000
H        2.29390000       1.30260000       1.12970000
H        2.91740000      -0.09760000       1.99490000
