18
Properties=species:S:1:pos:R:3 gdb_22061=T pbc="F F F"
C       -0.16810000       1.29560000      -0.25270000
C        0.21720000      -0.16000000      -0.32000000
O        1.30640000      -0.61430000      -0.08660000
O       -0.85320000      -0.91060000      -0.68540000
C       -0.60120000      -2.29230000      -0.91000000
C       -0.13530000      -2.60030000      -2.31210000
C        0.11640000      -4.04370000      -2.64950000
N        0.02200000      -1.62520000      -3.11770000
O        0.46740000      -2.06570000      -4.37320000
H        0.64440000       1.86800000       0.19330000
H       -0.36200000       1.66000000      -1.26610000
H       -1.08800000       1.42400000       0.32300000
H        0.14510000      -2.65740000      -0.19550000
H       -1.54890000      -2.80690000      -0.71620000
H       -0.45630000      -4.33360000      -3.53530000
H        1.17300000      -4.19640000      -2.89200000
H       -0.15120000      -4.70150000      -1.81890000
H        0.54280000      -1.23950000      -4.86190000
