18
Properties=species:S:1:pos:R:3 gdb_31732=T pbc="F F F"
C       -0.05400000       1.41650000       0.16560000
N       -0.00330000      -0.03310000       0.12280000
C       -1.21390000      -0.71460000       0.04460000
C       -2.45030000      -0.21890000      -0.26000000
O       -3.37090000      -1.24000000      -0.29400000
C       -2.70850000      -2.38500000      -0.00520000
C       -3.50590000      -3.65010000       0.02560000
O       -2.91750000      -4.62800000       0.86530000
C       -1.38970000      -2.13290000       0.21460000
H        0.95800000       1.81160000       0.28000000
H       -0.45590000       1.79650000      -0.78050000
H       -0.68330000       1.81100000       0.98060000
H        0.62580000      -0.43160000       0.80470000
H       -2.83050000       0.76310000      -0.47720000
H       -4.54130000      -3.41110000       0.31540000
H       -3.55390000      -4.11080000      -0.96890000
H       -2.79720000      -4.22370000       1.73140000
H       -0.62950000      -2.86290000       0.44440000
