17
Properties=species:S:1:pos:R:3 gdb_14269=T pbc="F F F"
C       -0.03250000       1.37700000      -0.27590000
C        1.49140000       1.50850000       0.00220000
C        1.39000000       0.24230000       0.89830000
C        0.07640000      -0.10680000       0.15530000
O        0.24960000      -1.01400000      -0.93120000
C        1.20270000      -0.79890000      -1.87800000
N        2.07000000       0.09750000      -2.06240000
C        2.33320000       1.26850000      -1.24950000
H       -0.63690000       1.94510000       0.43590000
H       -0.39210000       1.57280000      -1.28920000
H        1.82400000       2.42970000       0.48940000
H        2.19720000      -0.49270000       0.84820000
H        1.19120000       0.48680000       1.94500000
H       -0.74300000      -0.53440000       0.73470000
H        1.13750000      -1.61990000      -2.59250000
H        2.24530000       2.14110000      -1.91250000
H        3.39400000       1.22480000      -0.96420000
