15
Properties=species:S:1:pos:R:3 gdb_12184=T pbc="F F F"
C        0.16410000       1.62420000      -0.07300000
C        0.10040000       0.10470000      -0.00600000
C        0.65070000      -0.76150000      -1.18320000
C        1.36370000      -1.71750000      -0.16770000
C        2.72720000      -2.13290000      -0.41850000
N        3.82460000      -2.43450000      -0.62260000
C        1.10220000      -0.61040000       0.91140000
O        1.59440000      -0.36760000       1.96740000
H        1.16860000       1.96330000      -0.34420000
H       -0.53960000       2.01260000      -0.81530000
H       -0.08670000       2.06060000       0.89780000
H       -0.91130000      -0.22530000       0.26490000
H       -0.08300000      -1.23350000      -1.83570000
H        1.37590000      -0.21360000      -1.78770000
H        0.74320000      -2.59070000       0.06230000
