17
Properties=species:S:1:pos:R:3 gdb_66824=T pbc="F F F"
O       -0.11010000       1.47210000       0.30400000
C       -0.05580000       0.11160000       0.04250000
C       -1.30600000      -0.78640000      -0.06340000
C       -0.77230000      -1.90600000      -0.91770000
C        0.49310000      -1.53710000      -1.56850000
C        0.99800000      -0.44770000      -0.93600000
C        1.98460000      -0.78880000       0.20380000
C        0.62950000      -0.87220000       1.02180000
C       -0.52290000      -1.86770000       0.64810000
H        0.02630000       1.93590000      -0.52940000
H       -2.34850000      -0.50720000       0.00780000
H       -1.44030000      -2.68410000      -1.27190000
H        1.11940000      -2.29810000      -2.02650000
H        2.59300000      -1.68510000       0.07270000
H        2.59450000       0.03210000       0.59300000
H        0.64880000      -0.63700000       2.08890000
H       -0.88560000      -2.67890000       1.26470000
