21
Properties=species:S:1:pos:R:3 gdb_81889=T pbc="F F F"
C       -0.43090000       1.55050000       0.36960000
C       -0.09940000       0.06830000       0.23110000
C        0.27520000      -0.46150000      -1.16060000
C        1.57830000       0.06120000      -1.64340000
C        1.62010000      -1.02650000      -0.59480000
C        2.15510000      -2.35900000      -0.90620000
O        2.37300000      -2.77790000      -2.02140000
C        1.26300000      -0.49680000       0.80250000
C        2.25140000       0.43690000       1.49320000
H        0.34780000       2.19250000      -0.05240000
H       -1.36670000       1.78360000      -0.14990000
H       -0.55710000       1.82810000       1.42150000
H       -0.92700000      -0.51810000       0.64070000
H       -0.38970000      -1.00370000      -1.82270000
H        1.88220000      -0.28320000      -2.62590000
H        1.91480000       1.06030000      -1.38300000
H        2.33250000      -3.00090000      -0.01150000
H        1.04710000      -1.33980000       1.46820000
H        2.52070000       1.29300000       0.86770000
H        1.83770000       0.82740000       2.42910000
H        3.17650000      -0.09700000       1.73630000
