17
Properties=species:S:1:pos:R:3 gdb_105131=T pbc="F F F"
C       -0.43130000       1.31360000       0.07700000
N        0.36350000       0.09950000      -0.05920000
C        0.82980000      -0.47120000       1.16400000
C       -0.11460000      -1.06160000       2.20670000
C        0.73110000      -1.99270000       1.36270000
C        0.13450000      -2.78200000       0.32700000
C       -0.36430000      -3.43140000      -0.55470000
C        2.03590000       0.14800000       1.68040000
N        2.98520000       0.64990000       2.10990000
H        0.18130000       2.10440000       0.52200000
H       -0.73710000       1.64920000      -0.91700000
H       -1.33370000       1.19400000       0.69930000
H       -0.09320000      -0.60440000      -0.62650000
H        0.13920000      -0.96740000       3.25590000
H       -1.17110000      -1.00670000       1.97210000
H        1.58480000      -2.44600000       1.85600000
H       -0.80000000      -4.02040000      -1.32390000
