18
Properties=species:S:1:pos:R:3 gdb_89773=T pbc="F F F"
C       -0.03460000       1.51400000       0.07600000
N       -0.00950000       0.06910000       0.14680000
C       -1.25450000      -0.65980000       0.46990000
C       -0.43190000      -1.59020000       1.36410000
C       -0.84790000      -2.48260000       2.45930000
N       -0.24010000      -3.01660000       1.22250000
C        0.71690000      -0.56380000       1.26790000
C        2.06600000      -1.03470000       0.95820000
N        3.14070000      -1.39040000       0.72770000
H        0.97870000       1.89070000      -0.09300000
H       -0.65410000       1.82740000      -0.76990000
H       -0.43440000       1.98840000       0.99180000
H       -1.98620000      -0.06010000       1.03540000
H       -1.75390000      -1.10610000      -0.39800000
H       -0.23300000      -2.58830000       3.34900000
H       -1.91490000      -2.61390000       2.62490000
H       -0.94410000      -3.41890000       0.60850000
H        0.76490000       0.06780000       2.17110000
