15
Properties=species:S:1:pos:R:3 gdb_127486=T pbc="F F F"
C       -0.01450000       1.44680000      -0.01870000
N        0.01580000      -0.01010000      -0.00790000
N       -0.01330000      -0.61880000      -1.20800000
C        0.03300000      -1.92140000      -1.20400000
N        0.10530000      -2.60380000      -2.41310000
C        0.08250000      -2.63580000       0.04300000
N        0.08290000      -2.05220000       1.19400000
C        0.05160000      -0.65350000       1.23510000
O        0.05500000      -0.00670000       2.26260000
H        0.86940000       1.84130000       0.48900000
H       -0.03770000       1.76820000      -1.05850000
H       -0.89610000       1.80660000       0.51820000
H       -0.10920000      -2.01690000      -3.20830000
H       -0.40470000      -3.47570000      -2.43900000
H        0.12130000      -3.72710000       0.02560000
