16
Properties=species:S:1:pos:R:3 gdb_52342=T pbc="F F F"
O       -0.27860000       0.04160000      -0.00650000
C       -0.04060000       1.22020000       0.03340000
C        1.33460000       1.83150000      -0.11230000
C        1.37800000       2.87450000      -1.24250000
N        2.62190000       3.61980000      -1.18420000
C        3.38190000       3.56320000      -2.17810000
O        4.56660000       4.24610000      -2.15830000
C        5.37430000       4.16470000      -3.25620000
O        6.41730000       4.73130000      -3.31200000
H       -0.85750000       1.96480000       0.18790000
H        1.58300000       2.34370000       0.82700000
H        2.06630000       1.03620000      -0.27520000
H        1.22050000       2.38040000      -2.21540000
H        0.55600000       3.58800000      -1.10230000
H        3.19400000       3.00450000      -3.10480000
H        4.95160000       3.52980000      -4.05540000
