22
Properties=species:S:1:pos:R:3 gdb_120403=T pbc="F F F"
C       -0.00290000       1.57690000       0.03030000
C       -0.02020000       0.04630000       0.04190000
C       -1.42920000      -0.52790000      -0.11430000
N       -1.43730000      -1.97930000      -0.07980000
C       -0.90510000      -2.70410000      -1.25770000
C       -2.11920000      -3.63680000      -1.15240000
O       -2.42680000      -4.69360000      -1.61520000
C       -2.75650000      -2.66230000      -0.14860000
C       -3.32160000      -3.20640000       1.15330000
H        1.01510000       1.96190000       0.13980000
H       -0.40910000       1.97360000      -0.90680000
H       -0.60310000       1.98700000       0.85020000
H        0.61590000      -0.33440000      -0.76760000
H        0.40870000      -0.33400000       0.97590000
H       -2.06040000      -0.16960000       0.70880000
H       -1.88280000      -0.14240000      -1.05150000
H       -0.92740000      -2.12560000      -2.19770000
H        0.08820000      -3.14860000      -1.13910000
H       -3.51620000      -2.05400000      -0.67420000
H       -2.57540000      -3.81510000       1.67060000
H       -3.62330000      -2.39220000       1.81990000
H       -4.20120000      -3.82520000       0.95070000
