16
Properties=species:S:1:pos:R:3 gdb_51268=T pbc="F F F"
O        0.65790000       2.38380000       1.13510000
C        0.20500000       1.80360000       0.16990000
N        0.87130000       0.88690000      -0.59330000
C        2.18700000       0.45580000      -0.42700000
N        2.74490000      -0.34670000      -1.26640000
C        4.11070000      -0.47440000      -0.81260000
C        4.97090000       0.77290000      -0.80110000
C        4.25700000       0.36050000       0.46500000
N        2.92130000       0.85400000       0.65540000
H       -0.82290000       1.96760000      -0.20000000
H        0.41090000       0.49300000      -1.40100000
H        4.57970000      -1.44070000      -0.95440000
H        6.04410000       0.61770000      -0.81540000
H        4.62110000       1.64710000      -1.34070000
H        4.79880000       0.06400000       1.35530000
H        2.63450000       1.63240000       1.22930000
