14
Properties=species:S:1:pos:R:3 gdb_2705=T pbc="F F F"
O       -0.00970000       1.41920000      -0.05190000
C        0.00650000       0.00850000      -0.01290000
C       -1.39960000      -0.56840000       0.02060000
O       -2.03560000      -0.15660000      -1.18450000
C       -3.39600000      -0.50420000      -1.23500000
C       -3.97200000      -0.01450000      -2.49110000
N       -4.45020000       0.36170000      -3.47210000
H       -0.54900000       1.66470000      -0.81250000
H        0.54700000      -0.41800000      -0.87220000
H        0.53890000      -0.28360000       0.89790000
H       -1.37500000      -1.66760000       0.08980000
H       -1.94840000      -0.17410000       0.88970000
H       -3.53710000      -1.59610000      -1.18560000
H       -3.95820000      -0.06550000      -0.39470000
