21
Properties=species:S:1:pos:R:3 gdb_112998=T pbc="F F F"
C       -0.67750000       1.24050000       0.23380000
C       -0.09900000      -0.15880000       0.04880000
C        0.64650000      -0.56000000      -1.26530000
C        1.16740000       0.57540000      -2.13130000
O        1.96180000      -0.01140000      -3.15210000
C        1.73700000      -1.25590000      -0.40550000
C        1.15690000      -0.61180000       0.89280000
C        1.98840000       0.51000000       1.45360000
O        2.12860000       0.73860000       2.62880000
H        0.05120000       2.03060000       0.02940000
H       -1.53360000       1.39880000      -0.43080000
H       -1.02730000       1.37700000       1.26250000
H       -0.89310000      -0.88750000       0.23720000
H        0.08030000      -1.23340000      -1.91480000
H        0.32290000       1.14120000      -2.55600000
H        1.76260000       1.28250000      -1.53050000
H        2.33300000       0.69420000      -3.68970000
H        1.66330000      -2.34470000      -0.39580000
H        2.76650000      -0.98660000      -0.65720000
H        0.92310000      -1.28990000       1.71590000
H        2.49620000       1.14840000       0.69120000
