15
Properties=species:S:1:pos:R:3 gdb_29518=T pbc="F F F"
C        0.00720000       1.54690000      -0.01130000
C       -0.00290000       0.05280000       0.04310000
C        0.01470000      -0.81170000      -1.02450000
O        0.00280000      -2.14890000      -0.62550000
C       -0.03820000      -2.07210000       0.70190000
C       -0.04620000      -0.82030000       1.17370000
O        0.10040000      -0.84950000       2.55530000
C       -0.14990000      -2.23440000       2.84310000
O        0.11630000      -3.03040000       1.65070000
H        0.88180000       1.95850000       0.50420000
H        0.03020000       1.89950000      -1.04570000
H       -0.88020000       1.96990000       0.47190000
H       -0.03820000      -0.65690000      -2.08810000
H        0.51140000      -2.56950000       3.64240000
H       -1.21140000      -2.36570000       3.10160000
