21
Properties=species:S:1:pos:R:3 gdb_60966=T pbc="F F F"
C       -0.81890000       1.06460000      -0.09100000
C        0.25080000      -0.00410000       0.07020000
C        1.51180000       0.05890000      -0.83980000
C        2.39910000      -0.27790000       0.39160000
C        1.18810000       0.06300000       1.31120000
C        2.83960000      -1.75210000       0.42580000
O        3.60530000      -2.07840000      -0.70230000
C        3.62670000      -2.03680000       1.68780000
O        4.75440000      -2.46960000       1.64930000
H       -0.38390000       2.06870000      -0.02490000
H       -1.31890000       0.98210000      -1.06260000
H       -1.58700000       0.98230000       0.68630000
H       -0.21180000      -0.99500000       0.00340000
H        1.57080000      -0.62910000      -1.68540000
H        1.69930000       1.07380000      -1.20300000
H        3.28610000       0.35110000       0.51210000
H        1.26070000       1.07740000       1.71440000
H        0.96910000      -0.61690000       2.14070000
H        1.93280000      -2.38500000       0.46790000
H        4.45290000      -2.40210000      -0.35780000
H        3.12280000      -1.81720000       2.64990000
