21
Properties=species:S:1:pos:R:3 gdb_70123=T pbc="F F F"
C       -0.10410000       1.42750000      -0.28830000
C       -0.10950000      -0.04430000       0.07070000
C       -0.65550000      -0.47600000       1.41330000
C        0.84010000      -0.52790000       1.13690000
C        1.61300000      -1.79210000       1.04020000
C        2.14590000      -2.32690000      -0.07150000
C        1.97880000      -1.86130000      -1.44660000
C        0.89100000      -1.24750000      -1.93490000
C       -0.34280000      -0.98820000      -1.10690000
H        0.65740000       1.63900000      -1.04840000
H       -1.07510000       1.73860000      -0.69230000
H        0.11120000       2.05420000       0.58270000
H       -1.00760000       0.28360000       2.10350000
H       -1.19780000      -1.41460000       1.46120000
H        1.39680000       0.25620000       1.65100000
H        1.84980000      -2.26510000       1.99280000
H        2.78840000      -3.19770000       0.05140000
H        2.79970000      -2.08550000      -2.12520000
H        0.87150000      -0.96950000      -2.98530000
H       -0.69070000      -1.95230000      -0.71190000
H       -1.15190000      -0.59680000      -1.73340000
