18
Properties=species:S:1:pos:R:3 gdb_101536=T pbc="F F F"
C        0.01010000       1.56560000       0.08290000
C       -0.02470000       0.03560000       0.08730000
C       -1.42710000      -0.55070000      -0.02780000
C       -1.45820000      -2.07200000      -0.09070000
O       -2.15000000      -0.10840000       1.17230000
C       -3.47050000      -0.00600000       1.08030000
O       -4.16310000      -0.23840000       0.12600000
C       -4.02420000       0.45980000       2.36130000
N       -4.51120000       0.82230000       3.34370000
H        1.03840000       1.93020000       0.15690000
H       -0.42140000       1.96960000      -0.83940000
H       -0.55290000       1.97480000       0.92610000
H        0.55850000      -0.35600000      -0.75450000
H        0.44320000      -0.35370000       0.99950000
H       -1.95450000      -0.12740000      -0.88780000
H       -0.98410000      -2.50590000       0.79470000
H       -2.48490000      -2.43790000      -0.16070000
H       -0.91440000      -2.41370000      -0.97630000
