14
Properties=species:S:1:pos:R:3 gdb_26914=T pbc="F F F"
N        0.00510000       1.47620000       0.18320000
C       -0.00100000       0.06220000       0.06730000
C       -1.14610000      -0.67790000       0.04890000
O       -2.36600000      -0.11610000       0.08540000
O       -1.16740000      -2.00840000       0.02720000
C        0.02100000      -2.82140000      -0.03750000
O       -0.14940000      -4.00760000      -0.08280000
C        1.22900000      -2.04840000      -0.02820000
C        1.20470000      -0.68660000       0.03770000
H        0.46860000       1.91820000      -0.60390000
H       -0.93850000       1.84060000       0.23570000
H       -3.02140000      -0.82600000       0.07990000
H        2.15390000      -2.60790000      -0.06090000
H        2.13910000      -0.13300000       0.06950000
