16
Properties=species:S:1:pos:R:3 gdb_43067=T pbc="F F F"
O       -0.06950000       0.00880000       0.26820000
C       -0.08420000       1.18290000       0.05390000
C       -1.18840000       2.28820000      -0.08250000
C       -1.71120000       2.54370000       1.31460000
C       -0.89320000       3.32270000       2.03140000
C        0.31980000       3.75880000       1.25290000
C        1.49410000       2.70350000       1.26100000
N        0.98590000       2.12980000      -0.03540000
C        0.01280000       3.25950000      -0.18880000
H       -1.93620000       2.20330000      -0.87220000
H       -2.60170000       2.05490000       1.69140000
H       -1.03460000       3.56740000       3.07830000
H        0.62030000       4.79630000       1.41350000
H        2.48630000       3.14360000       1.12790000
H        1.51800000       1.98620000       2.08460000
H        0.12770000       3.91530000      -1.05080000
