14
Properties=species:S:1:pos:R:3 gdb_11372=T pbc="F F F"
O        0.02100000       1.42580000       0.00970000
C       -0.02140000       0.02430000       0.00200000
C       -1.44910000      -0.44200000       0.01230000
N       -2.49110000       0.29380000       0.02220000
C       -3.63480000      -0.62020000       0.02950000
C       -3.06680000      -2.04550000       0.02090000
O       -3.62120000      -3.11560000       0.02400000
N       -1.69290000      -1.82020000       0.01130000
H        0.94430000       1.69430000      -0.00270000
H        0.46730000      -0.40770000      -0.88960000
H        0.48360000      -0.41780000       0.87950000
H       -4.25960000      -0.46150000       0.91530000
H       -4.27430000      -0.45710000      -0.84500000
H       -1.00820000      -2.55910000       0.00510000
