15
Properties=species:S:1:pos:R:3 gdb_33694=T pbc="F F F"
N       -0.01790000      -1.12760000      -0.19920000
C        0.00440000       0.02170000      -0.06680000
C        0.01590000       1.43230000       0.14070000
C       -1.11590000       2.28120000       0.75120000
C       -0.42600000       3.60250000       1.05910000
C        1.07390000       3.41720000       1.16290000
C        1.22370000       2.31640000       0.13860000
N        0.23610000       2.43800000      -0.96720000
C       -0.86510000       3.27760000      -0.34410000
H       -2.03030000       1.91800000       1.19520000
H       -0.96340000       4.35120000       1.62670000
H        1.62830000       4.31690000       0.87760000
H        1.40400000       3.09780000       2.15630000
H        2.18670000       1.91640000      -0.15620000
H       -1.52390000       3.85210000      -0.97900000
