22
Properties=species:S:1:pos:R:3 gdb_6231=T pbc="F F F"
C       -1.71660000       0.97280000      -0.59630000
C       -0.78650000      -0.19520000      -0.34180000
C        0.38730000      -0.57940000      -1.24580000
C        0.60040000      -2.06140000      -1.50800000
C        0.73790000       0.27670000      -2.45140000
C        0.64190000      -0.06000000       0.15510000
C        1.28290000       1.28460000       0.42630000
O        1.08840000      -1.04450000       1.06390000
H       -1.20230000       1.84340000      -1.01010000
H       -2.50740000       0.69640000      -1.30290000
H       -2.20460000       1.29490000       0.33090000
H       -1.29170000      -1.06110000       0.08240000
H       -0.05460000      -2.40210000      -2.31880000
H        1.63460000      -2.25980000      -1.81390000
H        0.39850000      -2.65960000      -0.61940000
H        0.54140000       1.34030000      -2.30620000
H        1.79900000       0.16870000      -2.70500000
H        0.16000000      -0.04580000      -3.32550000
H        0.96260000       2.06230000      -0.26880000
H        1.02900000       1.62720000       1.43770000
H        2.37290000       1.19990000       0.36920000
H        0.71820000      -0.83140000       1.92760000
