19
Properties=species:S:1:pos:R:3 gdb_106085=T pbc="F F F"
C        0.07540000       1.52050000      -0.25370000
C        0.00630000       0.03040000       0.10590000
C       -1.38890000      -0.50790000       0.14290000
C       -2.01540000      -1.85940000       0.04170000
C       -2.93030000      -1.61150000       1.24370000
C       -2.68600000      -0.09980000       0.97920000
C       -3.32690000       0.13710000      -0.40310000
O       -4.11170000       0.94060000      -0.82530000
C       -2.35910000      -0.81010000      -1.03310000
H        1.11160000       1.87100000      -0.25810000
H       -0.35210000       1.70700000      -1.24360000
H       -0.48030000       2.12690000       0.46860000
H        0.58660000      -0.55540000      -0.61810000
H        0.48230000      -0.13440000       1.08160000
H       -1.54700000      -2.78640000      -0.26740000
H       -3.96680000      -1.96430000       1.20120000
H       -2.46140000      -1.94590000       2.17280000
H       -2.75830000       0.65100000       1.76160000
H       -2.11270000      -0.95400000      -2.07650000
