21
Properties=species:S:1:pos:R:3 gdb_31615=T pbc="F F F"
C        0.22600000       0.84510000      -0.65690000
N       -0.45200000       0.10230000       0.41340000
C        0.39540000      -0.53980000       1.33870000
C        0.93430000      -0.12630000       2.53970000
C        1.69090000      -1.20940000       3.07630000
C        2.45040000      -1.22960000       4.36850000
C        1.59200000      -2.24060000       2.17020000
N        0.79710000      -1.84170000       1.11960000
C        0.43290000      -2.65160000      -0.02160000
H        0.80260000       0.15070000      -1.27520000
H       -0.52510000       1.31850000      -1.29660000
H        0.91580000       1.61810000      -0.28570000
H       -1.09180000       0.71330000       0.90550000
H        0.79520000       0.84800000       2.98590000
H        1.79460000      -1.05620000       5.23050000
H        2.94380000      -2.19450000       4.52020000
H        3.22650000      -0.45510000       4.39960000
H        2.02220000      -3.23030000       2.18720000
H        0.24630000      -3.68070000       0.29720000
H       -0.47830000      -2.23980000      -0.45920000
H        1.21890000      -2.66250000      -0.78710000
