21
Properties=species:S:1:pos:R:3 gdb_118305=T pbc="F F F"
O       -0.04870000       1.47670000       0.15120000
C        0.05270000       0.06110000       0.11080000
C       -1.35740000      -0.49700000      -0.03870000
C       -1.40070000      -2.02670000      -0.06760000
O       -0.83160000      -2.59300000       1.11350000
C       -2.82180000      -2.55760000      -0.30920000
C       -2.86980000      -4.09120000      -0.39980000
C       -4.28310000      -4.61890000      -0.38550000
O       -4.76550000      -5.34240000      -1.21810000
H        0.83310000       1.83680000       0.28300000
H        0.67230000      -0.27190000      -0.73820000
H        0.51220000      -0.33990000       1.02510000
H       -1.97450000      -0.12580000       0.79170000
H       -1.80200000      -0.09730000      -0.95760000
H       -0.75100000      -2.38930000      -0.87530000
H       -1.31850000      -2.24190000       1.86860000
H       -3.46990000      -2.21210000       0.51010000
H       -3.22240000      -2.11340000      -1.22800000
H       -2.36560000      -4.45850000      -1.29850000
H       -2.34610000      -4.49740000       0.47650000
H       -4.88620000      -4.27710000       0.49070000
