19
Properties=species:S:1:pos:R:3 gdb_9260=T pbc="F F F"
C        0.08720000       1.58280000       0.01610000
C        0.01010000       0.05020000       0.03850000
C        0.75080000      -0.51090000       1.25550000
O        2.11380000      -0.12750000       1.16210000
C       -1.43140000      -0.48310000       0.02390000
C       -2.20000000      -0.12850000      -1.26570000
C       -3.53970000      -0.71160000      -1.28980000
N       -4.59590000      -1.18080000      -1.29120000
H        1.12480000       1.90510000       0.12370000
H       -0.30010000       2.00260000      -0.91690000
H       -0.48950000       2.01380000       0.84380000
H        0.53210000      -0.33760000      -0.84790000
H        0.28860000      -0.12130000       2.17820000
H        0.65010000      -1.60780000       1.27500000
H        2.56480000      -0.41290000       1.96160000
H       -1.42250000      -1.57380000       0.13010000
H       -1.98500000      -0.09030000       0.88540000
H       -2.29700000       0.95630000      -1.37620000
H       -1.65010000      -0.48680000      -2.14410000
