19
Properties=species:S:1:pos:R:3 gdb_109519=T pbc="F F F"
C        0.24880000       1.48290000       0.16060000
C       -0.20110000       0.05050000      -0.14840000
C        0.59350000      -0.57110000      -1.27490000
C        1.93130000      -1.24660000      -1.02410000
C        2.47800000      -1.35690000       0.29410000
C        2.96180000      -1.44050000       1.39230000
C        0.69820000      -2.07550000      -1.44400000
C        0.06900000      -2.97840000      -0.52840000
C       -0.46920000      -3.75190000       0.21900000
H        1.29380000       1.50100000       0.48480000
H        0.15770000       2.12890000      -0.71990000
H       -0.35970000       1.92010000       0.95800000
H       -0.10950000      -0.57030000       0.74740000
H       -1.26320000       0.04170000      -0.42340000
H        0.54710000      -0.02240000      -2.21270000
H        2.67410000      -1.13430000      -1.80880000
H        3.38380000      -1.52350000       2.36300000
H        0.73760000      -2.43360000      -2.46890000
H       -0.93670000      -4.43410000       0.88470000
