21
Properties=species:S:1:pos:R:3 gdb_41945=T pbc="F F F"
C       -0.03300000       1.37350000      -0.11600000
C        1.35510000       2.02810000       0.01600000
C        2.27590000       1.33110000       1.03730000
C        2.26360000      -0.17510000       0.76430000
C        0.81390000      -0.63340000       0.94220000
C        0.37440000      -0.33870000       2.39030000
C        0.69540000       1.09380000       2.85680000
O        1.95220000       1.58390000       2.40460000
O       -0.01210000      -0.04810000      -0.06440000
H       -0.71730000       1.77010000       0.64550000
H       -0.47130000       1.62040000      -1.08840000
H        1.86660000       1.98320000      -0.95320000
H        1.23940000       3.08610000       0.27370000
H        3.28530000       1.74010000       0.93110000
H        2.60280000      -0.38990000      -0.25390000
H        2.92470000      -0.68960000       1.46870000
H        0.71810000      -1.70850000       0.76180000
H       -0.69760000      -0.53100000       2.50510000
H        0.90390000      -1.05260000       3.03290000
H       -0.10780000       1.78160000       2.56170000
H        0.74930000       1.12720000       3.94980000
