17
Properties=species:S:1:pos:R:3 gdb_80743=T pbc="F F F"
O       -0.10300000       1.49840000      -0.10960000
C       -0.00910000       0.12010000       0.04850000
C       -1.26730000      -0.73510000       0.15290000
C       -2.57570000      -0.05930000      -0.24460000
C       -2.50390000      -0.03810000      -1.79720000
O       -1.09230000      -0.05640000      -2.11220000
C       -0.41920000      -0.76780000      -1.09440000
C       -3.19230000      -1.17230000      -2.41450000
C       -3.76200000      -2.10640000      -2.91180000
H       -0.29230000       1.64590000      -1.04710000
H        0.84120000      -0.17870000       0.65540000
H       -1.28270000      -1.56760000       0.84550000
H       -3.44740000      -0.61010000       0.10970000
H       -2.62170000       0.96370000       0.13910000
H       -2.89510000       0.89550000      -2.21380000
H        0.15490000      -1.62190000      -1.43660000
H       -4.26510000      -2.92750000      -3.35990000
