23
Properties=species:S:1:pos:R:3 gdb_122228=T pbc="F F F"
O       -0.05710000       1.44760000      -0.64310000
C        0.00040000       0.12620000      -0.12590000
C       -1.37430000      -0.48660000       0.07270000
C       -2.31260000       0.27310000       0.99740000
C       -1.88200000       0.25700000       2.46150000
O       -2.87850000       0.91040000       3.21870000
C       -2.56570000       0.98440000       4.58720000
C       -1.97630000      -1.17260000      -1.13710000
C       -1.46990000      -1.99230000       0.02390000
H       -0.57070000       1.41220000      -1.45740000
H        0.60090000      -0.53180000      -0.77510000
H        0.53570000       0.21160000       0.82600000
H       -2.38680000       1.31440000       0.66660000
H       -3.31900000      -0.15620000       0.93880000
H       -1.75080000      -0.78130000       2.81320000
H       -0.91260000       0.76640000       2.59240000
H       -3.38970000       1.50130000       5.08550000
H       -2.45050000      -0.01520000       5.03720000
H       -1.63470000       1.54640000       4.76560000
H       -3.04820000      -1.10160000      -1.28580000
H       -1.40070000      -1.19350000      -2.05790000
H       -0.55910000      -2.56580000      -0.11490000
H       -2.20190000      -2.47310000       0.66410000
