23
Properties=species:S:1:pos:R:3 gdb_108375=T pbc="F F F"
C       -0.99560000       0.72720000      -0.19310000
O        0.04930000      -0.18770000       0.09280000
C        0.60550000      -0.74670000      -1.04380000
C       -0.07930000      -1.87670000      -1.82970000
C        1.30990000      -2.58530000      -1.95710000
C        1.95430000      -1.44560000      -1.15950000
C        1.73070000      -0.08550000      -1.81480000
C        1.72140000       0.11200000      -3.32000000
C        2.41440000       1.05120000      -1.06880000
H       -0.64110000       1.57020000      -0.80200000
H       -1.82700000       0.23990000      -0.72230000
H       -1.36110000       1.10570000       0.76430000
H       -0.76310000      -2.43910000      -1.18950000
H       -0.60010000      -1.60990000      -2.75440000
H        1.33500000      -3.53940000      -1.42640000
H        1.68930000      -2.74470000      -2.97100000
H        2.72450000      -1.56780000      -0.40630000
H        1.22400000      -0.69950000      -3.85560000
H        1.20780000       1.04400000      -3.58460000
H        2.74510000       0.18260000      -3.70720000
H        3.46730000       1.12520000      -1.36460000
H        1.94190000       2.01340000      -1.29850000
H        2.36850000       0.90900000       0.01290000
