18
Properties=species:S:1:pos:R:3 gdb_55097=T pbc="F F F"
N       -0.02780000       0.94130000       0.02510000
H       -0.79970000      -0.98220000       1.80640000
H        0.97680000       1.08640000       0.07650000
H       -0.34190000       1.40960000      -0.82240000
C       -0.67610000       1.49870000       1.17610000
C       -0.23840000       2.66270000       2.02110000
C       -0.32350000       1.28160000       2.64420000
C       -1.77590000       0.89550000       2.96680000
C       -2.15450000       1.20310000       1.46900000
C       -1.94110000      -0.57450000       3.31130000
O       -2.59650000      -0.98090000       4.23010000
O       -1.29140000      -1.44870000       2.49810000
H        0.77900000       3.00260000       1.84960000
H       -0.92830000       3.45090000       2.31720000
H        0.55000000       0.81680000       3.08840000
H       -2.28680000       1.47620000       3.73670000
H       -2.84370000       2.03740000       1.31600000
H       -2.53390000       0.32680000       0.94060000
