17
Properties=species:S:1:pos:R:3 gdb_49740=T pbc="F F F"
O       -0.16370000       0.03430000      -0.11410000
C       -0.00250000       1.22600000      -0.16310000
C        1.34320000       1.92060000      -0.05540000
C        1.46050000       3.00780000      -1.12670000
C        1.90500000       4.15120000      -0.56860000
C        0.84100000       5.15770000      -0.11060000
C        1.00580000       4.35830000       1.23840000
C        1.44220000       2.83220000       1.19860000
C        2.39400000       3.92230000       0.87110000
H       -0.86720000       1.92220000      -0.26180000
H        2.11200000       1.13880000      -0.02080000
H        0.76950000       3.00970000      -1.96630000
H        1.17150000       6.18910000       0.05500000
H       -0.11370000       5.14440000      -0.64320000
H        0.69290000       4.75440000       2.20150000
H        1.44640000       2.37350000       2.18560000
H        3.35330000       4.16370000       1.30840000
