20
Properties=species:S:1:pos:R:3 gdb_69972=T pbc="F F F"
C       -0.04240000       1.56600000       0.11790000
C        0.10520000       0.07800000       0.02180000
N       -0.83920000      -0.83660000       0.69480000
C        0.61090000      -0.94300000       0.99710000
C        1.25380000      -1.75810000      -0.14970000
O        0.47120000      -2.81670000      -0.72300000
C       -0.09800000      -1.91800000      -1.71090000
C        0.73060000      -0.72140000      -1.17120000
C        1.63720000       0.03620000      -2.11320000
H        0.85940000       2.08530000      -0.22080000
H       -0.88090000       1.92230000      -0.49290000
H       -0.23270000       1.86950000       1.15340000
H       -1.25990000      -0.31920000       1.46680000
H        0.96590000      -0.83140000       2.01570000
H        2.31190000      -2.00710000      -0.02540000
H        0.17770000      -2.22760000      -2.72720000
H       -1.18390000      -1.84260000      -1.61530000
H        1.06700000       0.70830000      -2.76580000
H        2.36490000       0.64580000      -1.56600000
H        2.19720000      -0.65380000      -2.75260000
