17
Properties=species:S:1:pos:R:3 gdb_70341=T pbc="F F F"
O       -0.06620000       1.36870000      -0.04450000
C        0.06020000      -0.01230000      -0.00320000
C       -0.56680000      -0.74740000       1.14230000
C        0.94010000      -0.79230000       0.94550000
O        1.49800000      -1.89960000       0.27260000
C        1.18770000      -1.83420000      -1.09820000
C       -0.23200000      -2.11870000      -1.56730000
C        0.25040000      -0.70200000      -1.36060000
O        0.44990000       0.17090000      -2.43180000
H        0.52240000       1.67290000      -0.74790000
H       -0.90120000      -0.11510000       1.95890000
H       -1.16740000      -1.63520000       0.98100000
H        1.59970000      -0.35330000       1.68510000
H        2.01840000      -2.08750000      -1.74740000
H       -0.30940000      -2.44630000      -2.59940000
H       -0.95750000      -2.55600000      -0.89200000
H       -0.41770000       0.44910000      -2.74930000
