18
Properties=species:S:1:pos:R:3 gdb_51005=T pbc="F F F"
O       -0.02070000      -0.11240000       0.05740000
C        0.06070000       1.08700000      -0.01680000
C        1.36390000       1.83740000      -0.20970000
C        1.32590000       2.90900000      -1.29280000
C        0.43260000       2.77360000      -2.45360000
O        0.10920000       3.66380000      -1.37390000
C        2.58150000       3.73040000      -1.39520000
C        2.55730000       5.08980000      -1.97940000
N        2.74130000       4.91100000      -0.52550000
H       -0.83560000       1.73620000       0.07190000
H        1.60110000       2.32870000       0.74600000
H        2.16060000       1.11510000      -0.41180000
H        0.69510000       3.26060000      -3.39010000
H       -0.21590000       1.90290000      -2.54430000
H        3.48880000       3.13630000      -1.48770000
H        3.42800000       5.46190000      -2.51090000
H        1.60070000       5.46990000      -2.32380000
H        1.84930000       5.10200000      -0.07090000
