19
Properties=species:S:1:pos:R:3 gdb_58144=T pbc="F F F"
C        0.12360000       1.60810000       0.07730000
C        0.02840000       0.08510000       0.09410000
O        0.82080000      -0.48410000       1.13120000
C       -1.42710000      -0.46200000       0.17000000
C       -2.26150000       0.06270000       1.34070000
C       -2.15250000      -0.21440000      -1.15390000
O       -1.60840000      -0.15870000      -2.22720000
C       -1.29300000      -1.99750000       0.26460000
O       -1.92100000      -2.68460000       1.02200000
H        1.17250000       1.90360000      -0.00810000
H       -0.42320000       2.03000000      -0.77060000
H       -0.27850000       2.04670000       0.99750000
H        0.45960000      -0.30300000      -0.83320000
H        0.58040000      -0.06370000       1.96390000
H       -2.49360000       1.12500000       1.22720000
H       -3.19850000      -0.49380000       1.41620000
H       -1.73690000      -0.08020000       2.28960000
H       -3.25680000      -0.11540000      -1.06080000
H       -0.56540000      -2.42570000      -0.45550000
