20
Properties=species:S:1:pos:R:3 gdb_99122=T pbc="F F F"
C       -0.34740000       1.27000000       0.58280000
C        0.08370000      -0.12880000       0.20880000
C        1.42940000      -0.38150000      -0.42900000
C        1.16320000      -0.85750000       0.97540000
N        1.85310000      -0.20470000       2.05160000
C        1.32890000      -0.10120000       3.29940000
O        0.19440000      -0.44780000       3.59090000
C        2.23910000       0.50150000       4.37680000
O        1.54910000       0.57520000       5.58760000
H        0.50370000       1.87110000       0.91490000
H       -0.80190000       1.77850000      -0.27370000
H       -1.07750000       1.24630000       1.39720000
H       -0.72360000      -0.77380000      -0.12670000
H        1.52570000      -1.12440000      -1.21260000
H        2.08600000       0.47620000      -0.54280000
H        1.01510000      -1.92370000       1.12570000
H        2.83120000       0.00890000       1.92890000
H        3.14320000      -0.12300000       4.46970000
H        2.57260000       1.49870000       4.04670000
H        0.67530000       0.19640000       5.38680000
