22
Properties=species:S:1:pos:R:3 gdb_112883=T pbc="F F F"
C       -0.01320000       1.53760000       0.17690000
C       -0.04780000       0.02560000      -0.07030000
N       -1.38150000      -0.54120000      -0.02850000
C       -2.16680000      -0.65200000       1.18830000
C       -3.33720000      -1.58010000       0.78620000
C       -4.61010000      -1.35860000       1.59810000
C       -3.46600000      -1.33260000      -0.72650000
C       -2.06960000      -0.88870000      -1.16430000
O       -1.63730000      -0.82960000      -2.29780000
H        1.01670000       1.90430000       0.12530000
H       -0.60230000       2.06510000      -0.57890000
H       -0.40960000       1.79630000       1.16410000
H        0.34450000      -0.20290000      -1.06460000
H        0.57940000      -0.49030000       0.66890000
H       -1.56500000      -1.06840000       2.00530000
H       -2.53800000       0.32950000       1.52310000
H       -2.99820000      -2.61320000       0.93070000
H       -4.98540000      -0.33700000       1.46940000
H       -5.40140000      -2.04700000       1.28540000
H       -4.43400000      -1.51850000       2.66750000
H       -3.79440000      -2.20010000      -1.30180000
H       -4.16460000      -0.51340000      -0.94200000
