21
Properties=species:S:1:pos:R:3 gdb_37877=T pbc="F F F"
C       -0.05810000       1.55910000      -0.00050000
C        1.48600000       1.54770000      -0.01730000
C        2.11610000       0.86570000       1.26120000
C        1.00580000       0.46370000       2.24440000
C        0.30010000      -0.61800000       1.39610000
C        1.49560000      -1.55660000       1.10710000
C        2.36410000      -0.47590000       0.44870000
C        1.45620000       0.12330000      -0.64220000
C        0.00860000       0.00510000      -0.00990000
H       -0.60110000       2.06440000       0.80440000
H       -0.43520000       1.93360000      -0.95740000
H        2.03820000       2.39000000      -0.43680000
H        2.97390000       1.37070000       1.70560000
H        1.41630000       0.02480000       3.16060000
H        0.36590000       1.29930000       2.53760000
H       -0.57080000      -1.07690000       1.86840000
H        1.91980000      -1.99660000       2.01570000
H        1.25270000      -2.36460000       0.40770000
H        3.39150000      -0.72710000       0.18610000
H        1.57570000      -0.09240000      -1.70460000
H       -0.75990000      -0.54090000      -0.55990000
