17
Properties=species:S:1:pos:R:3 gdb_100504=T pbc="F F F"
C        0.50050000       1.06730000       0.32260000
C        0.08040000      -0.35750000       0.09060000
O       -0.32990000      -1.10200000       0.95290000
C        0.15240000      -0.86190000      -1.36630000
O        0.26600000      -0.08200000      -2.28700000
C        0.03880000      -2.35600000      -1.62100000
O       -0.27890000      -2.60370000      -2.96570000
C        1.37880000      -3.05730000      -1.26790000
O        1.89090000      -2.72880000       0.00620000
H        1.57710000       1.15720000       0.13520000
H        0.00600000       1.73060000      -0.39210000
H        0.27950000       1.35830000       1.34950000
H       -0.75520000      -2.75550000      -0.97760000
H       -0.06440000      -1.78940000      -3.44550000
H        1.23120000      -4.13850000      -1.39840000
H        2.12580000      -2.73390000      -2.00010000
H        1.19680000      -2.86850000       0.66090000
