12
Properties=species:S:1:pos:R:3 gdb_279=T pbc="F F F"
C        0.21940000       1.49860000      -0.00100000
C        0.25590000      -0.00860000       0.03560000
O        0.30520000      -0.66610000       1.04910000
C        0.22680000      -0.72450000      -1.33880000
C        0.26310000      -2.23170000      -1.30230000
O        0.17760000      -0.06700000      -2.35240000
H        1.06580000       1.87990000      -0.58090000
H       -0.68120000       1.83900000      -0.52190000
H        0.24440000       1.89290000       1.01490000
H       -0.58390000      -2.61290000      -0.72310000
H        0.23880000      -2.62610000      -2.31820000
H        1.16320000      -2.57230000      -0.78050000
