23
Properties=species:S:1:pos:R:3 gdb_117820=T pbc="F F F"
C        0.19140000       1.56390000      -0.07670000
C       -0.13580000       0.08030000      -0.10560000
O        0.62310000      -0.50230000      -1.16100000
C        0.74180000      -1.90710000      -1.20110000
C       -0.61780000      -2.63410000      -1.17990000
C        1.48560000      -2.23460000      -2.51880000
C        2.81270000      -1.49090000      -2.69160000
C        1.59620000      -2.44410000      -0.04840000
O        2.13620000      -1.77750000       0.79420000
H        1.25210000       1.71220000       0.14230000
H       -0.03020000       2.02580000      -1.04340000
H       -0.40010000       2.06920000       0.69290000
H        0.11670000      -0.38090000       0.85540000
H       -1.21140000      -0.06870000      -0.28470000
H       -1.23350000      -2.27730000      -2.01040000
H       -0.48010000      -3.71340000      -1.29380000
H       -1.16120000      -2.46200000      -0.24690000
H        1.64520000      -3.31860000      -2.56760000
H        0.80520000      -1.98110000      -3.33950000
H        3.26600000      -1.74030000      -3.65550000
H        2.65380000      -0.41190000      -2.64990000
H        3.53070000      -1.75200000      -1.90730000
H        1.69650000      -3.55670000      -0.05620000
