21
Properties=species:S:1:pos:R:3 gdb_68482=T pbc="F F F"
C       -0.13190000       1.54060000       0.05480000
C        0.05300000       0.03590000       0.03570000
C        1.14800000      -0.56250000      -0.90570000
C        1.46670000      -1.61010000       0.19690000
C        0.80670000      -0.64220000       1.22180000
O        0.81670000      -2.86290000       0.07550000
C       -0.47320000      -2.86660000      -0.51250000
C       -1.46930000      -1.87350000       0.08790000
O       -1.23900000      -0.51130000      -0.22650000
H        0.82700000       2.04830000       0.19280000
H       -0.57300000       1.87970000      -0.88780000
H       -0.80420000       1.83340000       0.86710000
H        0.83060000      -0.90870000      -1.89070000
H        1.98640000       0.12890000      -1.02700000
H        2.51850000      -1.85270000       0.36240000
H        1.54470000       0.04520000       1.64450000
H        0.22860000      -1.08150000       2.03640000
H       -0.41400000      -2.70420000      -1.59900000
H       -0.85800000      -3.87960000      -0.35180000
H       -2.46090000      -2.09450000      -0.32240000
H       -1.52120000      -2.02800000       1.17560000
