17
Properties=species:S:1:pos:R:3 gdb_63122=T pbc="F F F"
C        0.00970000       1.55570000      -0.03320000
C        0.09480000       0.04970000      -0.01140000
O       -0.97980000      -0.61940000      -0.60270000
C        1.35040000      -0.72400000      -0.21590000
N        2.50540000       0.01320000       0.30530000
C        1.97170000      -0.10480000       1.70280000
C        0.67430000      -0.74270000       1.18320000
C       -0.10580000      -1.72150000       1.85170000
N       -0.75910000      -2.50090000       2.40780000
H        0.95370000       2.01270000       0.26800000
H       -0.22070000       1.88280000      -1.05160000
H       -0.78670000       1.91250000       0.62900000
H       -1.73620000      -0.58640000      -0.00440000
H        1.42210000      -1.51220000      -0.95580000
H        3.36090000      -0.51930000       0.19970000
H        2.54120000      -0.80630000       2.31770000
H        1.88120000       0.84960000       2.23090000
