20
Properties=species:S:1:pos:R:3 gdb_56222=T pbc="F F F"
C       -0.12740000       1.43910000      -0.20680000
C       -0.01260000      -0.02810000       0.09460000
N        0.08870000      -0.46400000       1.28060000
O       -0.03720000      -0.74190000      -1.06820000
C        0.06160000      -2.16040000      -0.98270000
C        0.01050000      -2.69970000      -2.40350000
C        0.10730000      -4.21800000      -2.45400000
C        0.06500000      -4.85030000      -3.83200000
O        0.21210000      -4.87790000      -1.44460000
H        0.69650000       1.75880000      -0.85250000
H       -1.05830000       1.64370000      -0.74490000
H       -0.10760000       2.00520000       0.72320000
H        0.15820000      -1.47940000       1.32830000
H        0.99860000      -2.45170000      -0.49370000
H       -0.76310000      -2.56800000      -0.38630000
H       -0.91700000      -2.38280000      -2.89730000
H        0.82210000      -2.26840000      -3.00340000
H        0.88560000      -4.47090000      -4.45120000
H        0.14170000      -5.93450000      -3.74400000
H       -0.86670000      -4.58600000      -4.34460000
