16
Properties=species:S:1:pos:R:3 gdb_23250=T pbc="F F F"
O       -0.07820000       1.33370000      -0.16800000
N        0.02900000      -0.03780000      -0.03900000
C       -1.09310000      -0.64120000       0.05740000
C       -1.14910000      -2.14870000       0.19420000
C       -2.55600000      -2.43360000       0.71630000
C       -2.96090000      -1.72220000       1.96330000
C       -3.38440000      -1.16110000       0.60720000
C       -2.50560000      -0.07860000       0.06830000
O       -2.85880000       1.00490000      -0.32770000
H        0.84550000       1.60750000      -0.20770000
H       -1.01660000      -2.61390000      -0.79050000
H       -0.35990000      -2.53510000       0.84560000
H       -3.00590000      -3.39230000       0.48880000
H       -3.75850000      -2.14870000       2.56060000
H       -2.20960000      -1.18560000       2.53490000
H       -4.43580000      -1.14320000       0.35200000
