23
Properties=species:S:1:pos:R:3 gdb_57389=T pbc="F F F"
C       -0.30700000       1.45540000      -0.05810000
C        0.02940000      -0.03480000       0.04910000
C        0.81030000      -0.32600000       1.33940000
O       -1.23740000      -0.70580000       0.10520000
C        0.79220000      -0.49600000      -1.18440000
C        0.09150000      -0.79400000      -2.48060000
C        0.87300000      -1.89520000      -1.81320000
C        2.36820000      -1.71120000      -2.09040000
C        2.29100000      -0.27710000      -1.46950000
H        0.60550000       2.05230000      -0.14840000
H       -0.92920000       1.63740000      -0.93810000
H       -0.85500000       1.78790000       0.82840000
H        0.19290000      -0.07380000       2.20610000
H        1.07720000      -1.38770000       1.40100000
H        1.73530000       0.25470000       1.39690000
H       -1.06120000      -1.63860000       0.27090000
H       -0.98560000      -0.87940000      -2.39440000
H        0.44660000      -0.36300000      -3.41520000
H        0.39630000      -2.82050000      -1.50740000
H        3.00420000      -2.37800000      -1.50370000
H        2.67010000      -1.77860000      -3.14100000
H        2.52860000       0.56150000      -2.13250000
H        2.90160000      -0.18830000      -0.56880000
