21
Properties=species:S:1:pos:R:3 gdb_1299=T pbc="F F F"
C        0.06450000       1.38940000      -0.06000000
O        0.03060000      -0.01560000      -0.06860000
C       -1.27600000      -0.53540000       0.06470000
C       -1.18830000      -2.05690000       0.05550000
C       -2.54610000      -2.78000000       0.05090000
C       -2.34410000      -4.28800000      -0.15110000
C       -3.36210000      -2.51210000       1.32470000
H        1.10850000       1.69450000      -0.16750000
H       -0.51760000       1.81970000      -0.89130000
H       -0.33090000       1.80470000       0.88130000
H       -1.73400000      -0.16620000       0.99740000
H       -1.91360000      -0.18330000      -0.76650000
H       -0.61770000      -2.34760000      -0.83470000
H       -0.59770000      -2.38210000       0.92200000
H       -3.12450000      -2.40270000      -0.80550000
H       -1.76810000      -4.71930000       0.67650000
H       -3.30350000      -4.81390000      -0.19640000
H       -1.80050000      -4.49740000      -1.07820000
H       -3.59490000      -1.45070000       1.45140000
H       -4.31200000      -3.05660000       1.30200000
H       -2.81300000      -2.84150000       2.21520000
