14
Properties=species:S:1:pos:R:3 gdb_24928=T pbc="F F F"
N       -0.09950000       1.25170000       0.00760000
C       -0.01060000       0.00170000       0.00090000
O       -1.11960000      -0.81990000       0.00270000
C       -0.62060000      -2.09920000      -0.00640000
C        0.70790000      -2.07420000      -0.01330000
O        1.14880000      -0.76950000      -0.00920000
C        1.25660000      -3.41910000      -0.02290000
C        0.19650000      -4.26000000      -0.02120000
C       -1.13010000      -3.49560000      -0.01040000
H        0.82230000       1.67990000       0.00480000
H        2.30280000      -3.68770000      -0.02980000
H        0.23830000      -5.33970000      -0.02670000
H       -1.72940000      -3.74850000       0.87310000
H       -1.73880000      -3.74000000      -0.88990000
