17
Properties=species:S:1:pos:R:3 gdb_29637=T pbc="F F F"
C       -0.03310000       1.45730000      -0.02760000
N       -0.04100000      -0.00610000      -0.01080000
C       -1.20790000      -0.70630000       0.01470000
C       -2.50610000       0.04630000       0.02550000
C       -1.15730000      -2.07600000       0.02960000
C        0.11730000      -2.67970000       0.01720000
N        1.25300000      -2.03600000      -0.00700000
C        1.24910000      -0.65750000      -0.02240000
O        2.25470000       0.02160000      -0.04470000
H        1.01090000       1.76120000      -0.04880000
H       -0.54670000       1.84050000      -0.91390000
H       -0.51610000       1.86090000       0.86690000
H       -2.60890000       0.67990000      -0.86190000
H       -3.34170000      -0.65420000       0.04730000
H       -2.58140000       0.70210000       0.89950000
H       -2.06450000      -2.66340000       0.04990000
H        0.18550000      -3.76850000       0.02850000
