19
Properties=species:S:1:pos:R:3 gdb_35431=T pbc="F F F"
N        0.10640000      -1.15620000       0.06310000
C        0.03700000      -0.00430000       0.00180000
C       -0.05310000       1.45590000      -0.04670000
C       -0.85650000       2.01560000       1.17170000
C       -0.41490000       3.46300000       1.44030000
C        0.04020000       4.14660000       0.11500000
C        1.38750000       3.40300000       0.32370000
C        1.08440000       3.46210000       1.85140000
N        1.29550000       2.03990000      -0.21360000
H       -0.62540000       1.69890000      -0.95050000
H       -1.92480000       1.95620000       0.93810000
H       -0.68480000       1.40400000       2.06370000
H       -1.12940000       3.98590000       2.07930000
H       -0.51990000       3.96930000      -0.80640000
H        0.17080000       5.22240000       0.24850000
H        2.30640000       3.86420000      -0.04550000
H        1.38920000       4.41530000       2.29250000
H        1.44850000       2.63750000       2.47240000
H        1.98540000       1.45080000       0.24160000
