13
Properties=species:S:1:pos:R:3 gdb_132917=T pbc="F F F"
N       -0.00310000       1.46620000       0.15790000
C       -0.05440000       0.06990000       0.04430000
C       -1.18480000      -0.69050000       0.03770000
N       -1.09070000      -2.05140000      -0.00370000
C        0.11760000      -2.77270000      -0.03590000
O        0.11040000      -3.98270000      -0.06480000
N        1.26090000      -1.98120000      -0.03610000
C        1.14780000      -0.70750000       0.00130000
F        2.27280000       0.01110000      -0.01130000
H        0.87410000       1.84310000      -0.17380000
H       -0.78090000       1.94280000      -0.27820000
H       -2.18280000      -0.27040000       0.06580000
H       -1.92460000      -2.61970000      -0.01030000
