17
Properties=species:S:1:pos:R:3 gdb_12492=T pbc="F F F"
O       -0.21180000       0.82350000       1.42670000
C       -0.17680000       1.30250000       0.31770000
C       -1.43450000       1.26690000      -0.57330000
N       -1.54050000       2.14160000      -1.73280000
C       -0.96050000       3.46510000      -1.54070000
C        0.55570000       3.50900000      -1.84510000
O        1.21220000       2.29700000      -1.52210000
C        1.13990000       1.93450000      -0.16570000
H       -1.55280000       0.22720000      -0.90160000
H       -2.26810000       1.45180000       0.11740000
H       -1.11370000       1.69950000      -2.53830000
H       -1.46360000       4.20120000      -2.18050000
H       -1.16040000       3.77400000      -0.50770000
H        0.71790000       3.63570000      -2.92040000
H        1.02790000       4.36220000      -1.33170000
H        1.35290000       2.78800000       0.49960000
H        1.92530000       1.19280000       0.01210000
