21
Properties=species:S:1:pos:R:3 gdb_77089=T pbc="F F F"
C       -0.33220000       1.35290000      -0.11860000
C       -0.00110000      -0.12340000       0.04040000
C        1.28880000      -0.64470000      -0.66350000
O        1.87200000      -1.05610000       0.56700000
C        0.70220000      -0.64300000       1.34120000
C        1.10150000       0.38840000       2.38590000
C        0.02900000      -1.85930000       1.96470000
C        1.03700000      -1.76000000      -1.65230000
O        1.11760000      -2.93530000      -1.41090000
H        0.53870000       1.99060000       0.05820000
H       -0.69130000       1.55690000      -1.13300000
H       -1.12170000       1.65740000       0.57650000
H       -0.88290000      -0.72500000      -0.19970000
H        1.86990000       0.14580000      -1.16430000
H        1.62200000       1.23710000       1.93670000
H        0.22590000       0.76100000       2.92770000
H        1.77800000      -0.07400000       3.11150000
H        0.66800000      -2.29320000       2.74020000
H       -0.92640000      -1.58010000       2.42320000
H       -0.14960000      -2.62460000       1.20550000
H        0.71960000      -1.38920000      -2.65740000
