18
Properties=species:S:1:pos:R:3 gdb_34999=T pbc="F F F"
C        0.17190000      -1.26460000       0.15760000
C        0.11280000      -0.06290000       0.12860000
C        0.01580000       1.36640000       0.05140000
C        0.44230000       2.23340000       1.20530000
C        0.97550000       1.62500000       2.49190000
C        2.36010000       1.05600000       2.36680000
C        3.04720000       1.04540000       1.23030000
C        2.53610000       1.60550000      -0.06570000
N        1.21080000       2.23050000      -0.03780000
H        0.22760000      -2.32440000       0.19180000
H       -0.80500000       1.71970000      -0.57030000
H       -0.13190000       3.14790000       1.34400000
H        0.97190000       2.39760000       3.27170000
H        0.28620000       0.84560000       2.84600000
H        2.79340000       0.64010000       3.27240000
H        4.05080000       0.62850000       1.19770000
H        3.23790000       2.37190000      -0.42330000
H        2.53210000       0.82090000      -0.83400000
