17
Properties=species:S:1:pos:R:3 gdb_53878=T pbc="F F F"
N       -0.07350000       1.35330000      -0.13860000
C        0.09200000       0.00420000      -0.08860000
N        1.24870000      -0.54470000      -0.04220000
C       -1.24800000      -0.73450000      -0.09430000
O       -2.27330000      -0.11870000      -0.28400000
C       -1.23560000      -2.24110000       0.11190000
C       -2.64590000      -2.82530000       0.25000000
C       -2.64280000      -4.33070000       0.11670000
O       -3.11980000      -5.09650000       0.91200000
H        0.73530000       1.92310000      -0.31950000
H       -0.98770000       1.70000000      -0.37690000
H        1.17770000      -1.55590000       0.02950000
H       -0.71240000      -2.68980000      -0.74540000
H       -0.62300000      -2.47710000       0.98980000
H       -3.10460000      -2.54970000       1.20230000
H       -3.27250000      -2.41270000      -0.55160000
H       -2.15120000      -4.70370000      -0.81430000
