13
Properties=species:S:1:pos:R:3 gdb_48463=T pbc="F F F"
O       -0.64620000       0.59980000       0.66930000
C        0.07440000       0.96650000      -0.21830000
C        1.22580000       1.94630000      -0.00380000
C        1.42420000       2.46530000       1.41910000
O        2.67120000       1.69470000       1.55300000
C        2.57440000       1.19380000       0.29700000
O        3.29260000       0.45830000      -0.28700000
C        1.35840000       2.91020000      -1.16770000
O        1.20090000       2.57510000      -2.31080000
H       -0.02890000       0.62800000      -1.26510000
H        1.62590000       3.53360000       1.51850000
H        0.67930000       2.12240000       2.13580000
H        1.62210000       3.95200000      -0.88630000
