19
Properties=species:S:1:pos:R:3 gdb_107835=T pbc="F F F"
O       -0.00970000       1.34900000      -0.32180000
C        0.03040000      -0.00740000       0.08090000
C       -1.36790000      -0.56400000       0.21730000
C       -2.29660000       0.01300000       1.28250000
C       -3.58470000      -0.84460000       1.12960000
C       -3.12740000      -2.06800000       0.33080000
C       -2.45560000      -1.78960000      -0.99930000
O       -2.07380000      -0.41530000      -1.08230000
C       -1.61560000      -2.09110000       0.19860000
H       -0.54650000       1.36950000      -1.12380000
H        0.59840000      -0.62390000      -0.63260000
H        0.54990000      -0.04150000       1.04500000
H       -1.84590000      -0.11940000       2.27320000
H       -2.46450000       1.08070000       1.12600000
H       -3.99270000      -1.14020000       2.10000000
H       -4.36730000      -0.29500000       0.59850000
H       -3.65600000      -3.01120000       0.41670000
H       -2.64140000      -2.32360000      -1.92390000
H       -0.93070000      -2.89120000       0.44330000
