12
Properties=species:S:1:pos:R:3 gdb_129087=T pbc="F F F"
N       -0.32940000       1.34830000      -0.27070000
C       -0.09250000       0.09890000      -0.18820000
C       -1.18910000      -0.83420000       0.09560000
N       -1.08230000      -2.10450000       0.20360000
O        0.22450000      -2.62150000       0.02770000
C        1.22500000      -1.76810000      -0.23260000
C        2.56480000      -2.44560000      -0.40040000
O        2.73430000      -3.62910000      -0.31280000
N        1.16990000      -0.49420000      -0.35010000
H        0.54090000       1.84740000      -0.47210000
H       -2.19300000      -0.44270000       0.23150000
H        3.36570000      -1.71190000      -0.61360000
