23
Properties=species:S:1:pos:R:3 gdb_76735=T pbc="F F F"
C       -0.67900000       1.48240000      -0.50260000
C       -0.31850000       0.00790000      -0.37650000
C        0.99550000      -0.54780000      -1.07040000
C        1.89370000       0.39440000      -1.86130000
C        1.48500000      -0.97810000       0.32700000
C        2.43140000      -2.08130000       0.67610000
O        1.52320000       0.22280000       1.12530000
C        0.26220000      -0.46100000       0.97280000
C       -0.47700000      -0.85130000       2.21210000
H        0.13290000       2.11420000      -0.13390000
H       -0.88280000       1.75680000      -1.54300000
H       -1.57830000       1.71430000       0.07900000
H       -1.17310000      -0.61610000      -0.66110000
H        0.74510000      -1.42730000      -1.67410000
H        2.22540000       1.22930000      -1.23900000
H        2.78430000      -0.13070000      -2.22480000
H        1.37500000       0.80200000      -2.73530000
H        3.45160000      -1.83470000       0.35980000
H        2.44790000      -2.25300000       1.75590000
H        2.14210000      -3.01210000       0.17680000
H       -0.94230000       0.02360000       2.68050000
H       -1.27140000      -1.56840000       1.97940000
H        0.19960000      -1.30240000       2.94310000
