21
Properties=species:S:1:pos:R:3 gdb_70449=T pbc="F F F"
O       -0.10520000       1.35990000      -0.14040000
C        0.05310000      -0.00820000      -0.01470000
C       -0.83960000      -0.74750000       0.92300000
C        0.65870000      -0.87000000       1.10590000
C        1.20740000      -1.84640000       0.06090000
C        0.66220000      -0.92110000      -1.09000000
C       -0.22200000      -1.48970000      -2.16760000
C       -0.42510000      -0.73400000      -3.45800000
C        0.37740000      -2.01080000      -3.45190000
H        0.74520000       1.73740000      -0.39240000
H       -1.33100000      -0.09870000       1.64100000
H       -1.43550000      -1.60200000       0.60750000
H        1.14520000      -0.58000000       2.02890000
H        2.29590000      -1.93570000       0.05440000
H        0.77540000      -2.85270000       0.08960000
H        1.51060000      -0.40500000      -1.55940000
H       -1.08870000      -2.03240000      -1.79920000
H       -1.40950000      -0.74440000      -3.91240000
H        0.10850000       0.20240000      -3.58440000
H        1.45330000      -1.93470000      -3.57430000
H       -0.05660000      -2.89590000      -3.90380000
