17
Properties=species:S:1:pos:R:3 gdb_67297=T pbc="F F F"
C       -0.04500000       1.49230000      -0.01420000
C       -0.07670000      -0.00500000      -0.04610000
C        0.88710000      -0.98070000      -0.81650000
O        1.90800000      -0.98480000       0.22410000
C        0.64060000      -1.00490000       0.94150000
C       -0.07160000      -1.96430000      -0.06990000
C       -1.22790000      -0.98930000      -0.22430000
O       -2.43820000      -0.99450000       0.50140000
C       -2.49300000      -0.98090000      -0.94460000
H        0.97520000       1.84120000       0.17470000
H       -0.38130000       1.91840000      -0.96550000
H       -0.69560000       1.87950000       0.77650000
H        1.19690000      -0.97100000      -1.86080000
H        0.64800000      -1.02290000       2.03020000
H       -0.04060000      -3.05160000      -0.08080000
H       -2.87040000      -0.05740000      -1.38220000
H       -2.87060000      -1.89530000      -1.40020000
