22
Properties=species:S:1:pos:R:3 gdb_122590=T pbc="F F F"
C       -0.18100000       1.55990000       0.02320000
C        0.04760000       0.04620000       0.01190000
C        0.68500000      -0.45410000      -1.28840000
C        0.90860000      -1.97200000      -1.28810000
N        1.51340000      -2.46960000      -2.50090000
C        1.02570000      -2.59100000      -3.87870000
C        2.39030000      -3.24810000      -4.23270000
C        2.73610000      -3.05220000      -2.73740000
O        3.66710000      -3.29210000      -2.01300000
H        0.76280000       2.10320000      -0.09560000
H       -0.84350000       1.86660000      -0.79380000
H       -0.63750000       1.88690000       0.96240000
H        0.68680000      -0.23500000       0.85900000
H       -0.90880000      -0.47020000       0.16980000
H        0.04590000      -0.17910000      -2.13830000
H        1.64870000       0.04480000      -1.44990000
H        1.58550000      -2.25620000      -0.47530000
H       -0.04620000      -2.48920000      -1.11380000
H        0.15080000      -3.24310000      -3.98270000
H        0.82330000      -1.63420000      -4.37170000
H        2.34280000      -4.29110000      -4.55030000
H        3.02250000      -2.68390000      -4.92050000
