19
Properties=species:S:1:pos:R:3 gdb_84172=T pbc="F F F"
C       -0.20760000       1.57330000       0.04110000
C        0.04490000       0.05770000       0.00290000
C        0.87490000      -0.41310000      -1.17170000
C        1.88080000      -1.22520000      -0.80210000
C        2.79690000      -1.88470000      -1.73560000
O        3.68170000      -2.64370000      -1.40580000
C        1.94680000      -1.37170000       0.68220000
C        2.23700000      -0.08430000       1.42550000
C        0.80810000      -0.51110000       1.20770000
H        0.73090000       2.12990000       0.11940000
H       -0.72670000       1.90930000      -0.86250000
H       -0.82900000       1.83690000       0.90230000
H       -0.93800000      -0.43530000      -0.05980000
H        0.66820000      -0.11190000      -2.19440000
H        2.61290000      -1.64550000      -2.80730000
H        2.23760000      -2.32000000       1.11580000
H        2.62130000      -0.17130000       2.43610000
H        2.64360000       0.74800000       0.86020000
H        0.23610000      -0.81590000       2.07610000
