16
Properties=species:S:1:pos:R:3 gdb_130953=T pbc="F F F"
O       -0.23100000       0.03150000      -0.06700000
C        0.01270000       1.20080000       0.07330000
C        1.37280000       1.82960000      -0.13770000
C        1.31310000       2.97620000      -1.16010000
N        2.55490000       3.72470000      -1.20860000
C        3.46110000       3.83260000      -2.20270000
N        4.46650000       4.60370000      -1.83200000
C        4.11620000       4.94970000      -0.56400000
N        2.96910000       4.44490000      -0.13740000
H       -0.78160000       1.91960000       0.38400000
H        1.70310000       2.25670000       0.81790000
H        2.08400000       1.05860000      -0.44370000
H        1.12410000       2.59300000      -2.16640000
H        0.50520000       3.67050000      -0.90630000
H        3.34300000       3.34350000      -3.15830000
H        4.71860000       5.59180000       0.06110000
