15
Properties=species:S:1:pos:R:3 gdb_123606=T pbc="F F F"
C        0.04280000       1.45920000       0.01080000
C        1.28430000       0.65060000       0.05930000
C        1.93260000       0.33860000       1.42150000
N        0.83830000      -0.37760000       2.04550000
N        0.62370000      -0.92700000       3.26370000
C       -0.59940000      -1.42170000       3.09840000
N       -1.17500000      -1.22900000       1.86830000
C       -0.22570000      -0.56720000       1.24570000
N       -0.05120000      -0.02420000      -0.04470000
H       -0.29950000       1.94450000       0.92100000
H       -0.23370000       1.95700000      -0.91280000
H        1.91170000       0.57870000      -0.82150000
H        2.81680000      -0.29710000       1.30950000
H        2.21230000       1.23070000       1.98980000
H       -1.10100000      -1.94930000       3.89610000
