22
Properties=species:S:1:pos:R:3 gdb_111412=T pbc="F F F"
C        0.25510000       0.65940000      -1.58890000
C       -0.06260000       0.34200000      -0.12380000
C       -1.41550000      -0.34170000       0.04500000
C       -1.53410000      -1.82450000      -0.34990000
N       -0.64480000      -2.58050000       0.56780000
C       -2.01240000      -2.19860000       1.00680000
C       -1.93380000      -0.74600000       1.48970000
C       -1.08170000      -0.46160000       2.71130000
O       -1.10100000       0.94570000       2.93630000
H        1.23300000       1.14090000      -1.68880000
H        0.27240000      -0.25070000      -2.19920000
H       -0.49260000       1.33370000      -2.02230000
H        0.71700000      -0.30790000       0.28740000
H       -0.05780000       1.26070000       0.47280000
H       -2.19240000       0.24430000      -0.45740000
H       -1.80630000      -2.23930000      -1.31300000
H       -0.68750000      -3.55910000       0.28500000
H       -2.72440000      -2.95770000       1.30870000
H       -2.93240000      -0.33030000       1.65300000
H       -1.49970000      -1.00370000       3.57660000
H       -0.06180000      -0.83210000       2.55120000
H       -0.46490000       1.14590000       3.62900000
