15
Properties=species:S:1:pos:R:3 gdb_30516=T pbc="F F F"
C       -0.13620000       1.40910000       0.05310000
N       -0.16540000      -0.04300000       0.07830000
C        0.61080000      -0.65800000       0.85800000
O        1.49860000       0.02540000       1.69840000
C        2.32650000      -0.64980000       2.53060000
N        2.40510000      -1.91280000       2.65400000
C        1.55580000      -2.66720000       1.85380000
C        0.68230000      -2.11250000       0.98160000
O       -0.16540000      -2.78950000       0.18000000
H        0.85230000       1.79420000      -0.23110000
H       -0.86880000       1.76700000      -0.67320000
H       -0.37830000       1.84110000       1.03340000
H        2.94280000       0.03210000       3.10640000
H        1.63090000      -3.74520000       1.96700000
H       -0.04830000      -3.73530000       0.32910000
