22
Properties=species:S:1:pos:R:3 gdb_103096=T pbc="F F F"
C        0.07230000       1.47880000       0.36920000
C       -0.02980000       0.05450000      -0.19290000
C       -1.41940000      -0.56230000      -0.08980000
C       -2.50990000       0.18230000      -0.84120000
C       -1.57530000      -2.05820000       0.01370000
C       -0.43120000      -3.04780000      -0.01430000
C       -1.85740000      -1.18850000       1.24320000
C       -0.96270000      -1.22010000       2.36310000
N       -0.23760000      -1.24310000       3.26590000
H        1.10030000       1.84470000       0.29060000
H       -0.56860000       2.18170000      -0.17130000
H       -0.20930000       1.50440000       1.42630000
H        0.26340000       0.05430000      -1.25120000
H        0.69740000      -0.57540000       0.32540000
H       -2.26150000       0.25080000      -1.90670000
H       -3.47320000      -0.32980000      -0.75660000
H       -2.64170000       1.20040000      -0.46260000
H       -2.48560000      -2.44260000      -0.44080000
H        0.42290000      -2.72120000       0.58220000
H       -0.75700000      -4.01240000       0.38780000
H       -0.08740000      -3.21260000      -1.04090000
H       -2.89670000      -1.05630000       1.52650000
