25
Properties=species:S:1:pos:R:3 gdb_120743=T pbc="F F F"
C       -1.05410000       0.96400000       0.26460000
O       -0.55400000      -0.34720000       0.18530000
C       -0.05300000      -0.81660000       1.42280000
C        0.40910000      -2.23760000       1.24100000
C        1.77450000      -2.53110000       0.66700000
C        1.47590000      -2.87900000       2.10350000
C        2.17860000      -2.18350000       3.25910000
C        1.32160000      -2.21840000       4.53340000
C        3.55620000      -2.81740000       3.50490000
H       -0.27490000       1.68460000       0.56320000
H       -1.42220000       1.23640000      -0.72780000
H       -1.88420000       1.04540000       0.98540000
H        0.77170000      -0.16980000       1.76460000
H       -0.84430000      -0.75950000       2.19130000
H       -0.39270000      -2.89750000       0.92100000
H        1.87620000      -3.32490000      -0.06470000
H        2.42220000      -1.67780000       0.48670000
H        1.30650000      -3.93730000       2.29820000
H        2.34270000      -1.13270000       2.98720000
H        0.35210000      -1.73490000       4.37880000
H        1.13060000      -3.25240000       4.84490000
H        1.82510000      -1.71110000       5.36330000
H        4.18080000      -2.76860000       2.60760000
H        4.08610000      -2.30920000       4.31750000
H        3.45570000      -3.87330000       3.78370000
