21
Properties=species:S:1:pos:R:3 gdb_116304=T pbc="F F F"
C        0.05430000       1.32060000      -0.34980000
O       -0.01290000      -0.04010000       0.01040000
C       -1.33290000      -0.54490000       0.13450000
C       -1.93110000      -0.94020000      -1.22860000
C       -1.32350000      -2.32850000      -1.43110000
O       -1.33180000      -2.92540000      -0.13650000
C       -1.29270000      -1.89810000       0.87230000
C       -0.07700000      -2.14540000       1.76110000
O       -0.14290000      -3.44090000       2.32970000
H        1.11080000       1.59860000      -0.35990000
H       -0.36820000       1.51560000      -1.34650000
H       -0.47470000       1.95620000       0.37730000
H       -1.95510000       0.18210000       0.67490000
H       -3.02150000      -1.00650000      -1.15280000
H       -1.68260000      -0.23230000      -2.02230000
H       -1.89850000      -2.96930000      -2.10570000
H       -0.29640000      -2.24780000      -1.81540000
H       -2.19810000      -2.01170000       1.48360000
H        0.83930000      -2.00280000       1.17500000
H       -0.06130000      -1.42980000       2.58980000
H       -0.28270000      -4.04180000       1.58800000
