19
Properties=species:S:1:pos:R:3 gdb_121598=T pbc="F F F"
C        0.00350000       1.47560000      -0.03040000
C        0.00680000      -0.04310000      -0.04420000
O        0.66910000      -0.47740000      -1.21690000
C        0.72660000      -1.86780000      -1.32620000
C        1.44580000      -2.24450000      -2.60620000
O        1.88560000      -1.43690000      -3.39050000
C        1.60640000      -3.73620000      -2.87320000
N        2.16100000      -3.98120000      -4.09380000
N        1.20160000      -4.55320000      -1.97360000
H        1.02690000       1.86070000      -0.03660000
H       -0.51330000       1.86480000      -0.91200000
H       -0.50420000       1.84730000       0.86460000
H        0.51790000      -0.43960000       0.84950000
H       -1.02440000      -0.43470000      -0.02350000
H        1.25340000      -2.34010000      -0.48070000
H       -0.27350000      -2.33340000      -1.34330000
H        2.54580000      -3.18150000      -4.57450000
H        2.52450000      -4.89280000      -4.31190000
H        1.35770000      -5.52670000      -2.24300000
