14
Properties=species:S:1:pos:R:3 gdb_127879=T pbc="F F F"
C       -0.09300000       1.34760000       0.35680000
N       -0.07410000      -0.08780000       0.14290000
C       -1.09010000      -0.66330000      -0.32770000
N       -2.27640000      -0.03470000      -0.79470000
C       -3.39330000      -0.42230000      -0.32600000
N       -3.62910000      -1.33430000       0.74250000
N       -2.98480000      -2.40650000       0.85100000
C       -1.98130000      -2.78000000      -0.08980000
N       -1.06390000      -2.05750000      -0.59270000
H        0.87770000       1.75560000       0.05940000
H       -0.89000000       1.87040000      -0.18580000
H       -0.21030000       1.55400000       1.42750000
H       -4.31620000       0.04940000      -0.66330000
H       -1.98200000      -3.85460000      -0.26970000
