10
Properties=species:S:1:pos:R:3 gdb_1200=T pbc="F F F"
C        0.00250000       1.50440000      -0.01950000
C       -0.02750000      -0.00240000       0.06000000
O       -0.06500000      -0.63170000       1.09200000
C       -0.00810000      -0.70240000      -1.22350000
C        0.00730000      -1.30140000      -2.27470000
C        0.02450000      -1.97120000      -3.46380000
N        0.03950000      -2.53680000      -4.47820000
H        0.90450000       1.83470000      -0.54630000
H       -0.85560000       1.86760000      -0.59570000
H       -0.01780000       1.92140000       0.98800000
