18
Properties=species:S:1:pos:R:3 gdb_74887=T pbc="F F F"
C        0.01920000       1.47870000      -0.16070000
C        0.02930000      -0.02000000      -0.04720000
C       -1.08890000      -0.76050000      -0.02310000
C       -1.06580000      -2.23170000       0.04940000
C       -0.42890000      -3.01150000      -1.10700000
C        0.30080000      -2.84140000       0.18740000
O        1.42920000      -2.01150000       0.28810000
C        1.35490000      -0.66050000       0.06580000
N        2.42030000       0.03220000       0.00590000
H        0.56200000       1.80590000      -1.05260000
H       -1.00590000       1.85530000      -0.21000000
H        0.52940000       1.93780000       0.69120000
H       -2.05840000      -0.27100000      -0.06590000
H       -1.89430000      -2.70500000       0.56620000
H       -0.82270000      -3.99430000      -1.34190000
H       -0.09790000      -2.42670000      -1.95790000
H        0.43750000      -3.70680000       0.82530000
H        3.23520000      -0.57320000       0.12180000
