21
Properties=species:S:1:pos:R:3 gdb_121501=T pbc="F F F"
C       -0.16510000       1.00430000      -0.93770000
C       -0.18790000      -0.26940000      -0.10320000
O        0.97880000      -1.06620000      -0.32270000
C        0.91470000      -1.96370000      -1.32730000
N        1.94260000      -2.61340000      -1.65500000
C        1.86640000      -3.61020000      -2.71170000
C        0.57940000      -3.71210000      -3.50290000
C        0.12290000      -5.01870000      -4.03220000
N       -0.60900000      -4.37340000      -2.92680000
H        0.74440000       1.57660000      -0.73570000
H       -0.19550000       0.77500000      -2.00750000
H       -1.03110000       1.62960000      -0.69770000
H       -0.18240000      -0.03520000       0.96490000
H       -1.09000000      -0.86040000      -0.31070000
H       -0.08360000      -2.06680000      -1.77300000
H        2.69470000      -3.41190000      -3.40600000
H        2.09010000      -4.59030000      -2.26420000
H        0.32640000      -2.82230000      -4.07810000
H       -0.41810000      -5.06780000      -4.97270000
H        0.72730000      -5.89580000      -3.81320000
H       -0.34980000      -4.82040000      -2.04920000
