17
Properties=species:S:1:pos:R:3 gdb_18148=T pbc="F F F"
C       -0.34570000       1.43130000       0.10100000
C        0.00550000      -0.03740000       0.04430000
C        0.57900000      -0.75130000      -1.11300000
C        1.59950000       0.09330000      -1.87900000
C        2.36900000       0.17430000      -0.52560000
C        2.81560000       1.49820000       0.03600000
O        2.50390000       1.95690000       1.10400000
N        1.35030000      -0.64390000       0.20670000
H        0.22410000       2.04380000      -0.60040000
H       -1.40650000       1.55110000      -0.14500000
H       -0.17330000       1.83030000       1.10320000
H       -0.69230000      -0.64930000       0.61380000
H        0.19920000      -1.70500000      -1.46570000
H        2.14410000      -0.45990000      -2.64460000
H        1.22980000       1.02540000      -2.31640000
H        3.28650000      -0.42670000      -0.59660000
H        3.52480000       2.03590000      -0.63970000
