25
Properties=species:S:1:pos:R:3 gdb_96351=T pbc="F F F"
C       -0.01460000       1.56610000      -0.12550000
C        0.06070000       0.03950000       0.00530000
C        0.66870000      -0.56070000      -1.27270000
O        0.69150000      -1.97490000      -1.26400000
C        1.45810000      -2.47990000      -0.18500000
C        0.89400000      -2.02230000       1.15930000
C        0.79070000      -0.48070000       1.28380000
C        2.19440000       0.13620000       1.45120000
C       -0.03600000      -0.15450000       2.54030000
H        0.97450000       2.01140000      -0.27580000
H       -0.63150000       1.84430000      -0.98680000
H       -0.45910000       2.03190000       0.75800000
H       -0.96720000      -0.34600000       0.06270000
H        0.06750000      -0.27220000      -2.14110000
H        1.68700000      -0.16440000      -1.43350000
H        1.42390000      -3.57050000      -0.26860000
H        2.51250000      -2.17350000      -0.29350000
H       -0.10810000      -2.45560000       1.26960000
H        1.50880000      -2.42360000       1.97500000
H        2.83820000      -0.02840000       0.58280000
H        2.13830000       1.21570000       1.61990000
H        2.69760000      -0.30300000       2.31970000
H        0.42560000      -0.59800000       3.43000000
H       -0.10900000       0.92350000       2.71470000
H       -1.05330000      -0.55320000       2.45990000
