20
Properties=species:S:1:pos:R:3 gdb_22214=T pbc="F F F"
C        0.91920000      -1.00060000       0.89750000
C        0.01670000      -0.03790000       0.11310000
C        0.65240000       0.36100000      -1.23620000
C       -1.38740000      -0.57080000      -0.10350000
C       -1.68410000      -2.06150000      -0.14760000
C       -1.01130000      -2.77050000      -1.23470000
C       -0.46620000      -3.36290000      -2.12750000
N       -2.42480000       0.16080000      -0.26000000
O       -2.12600000       1.53250000      -0.21190000
H        1.89190000      -0.53130000       1.07460000
H        0.49310000      -1.25370000       1.87400000
H        1.09540000      -1.93010000       0.34770000
H       -0.10110000       0.87990000       0.69870000
H        0.77500000      -0.51210000      -1.88310000
H        0.02890000       1.09360000      -1.75350000
H        1.63910000       0.80540000      -1.06820000
H       -1.39730000      -2.52060000       0.80740000
H       -2.76810000      -2.17650000      -0.24510000
H        0.01030000      -3.88710000      -2.91860000
H       -2.99710000       1.92950000      -0.31530000
