19
Properties=species:S:1:pos:R:3 gdb_68115=T pbc="F F F"
O        0.02550000       1.32380000       0.04250000
C        0.03110000      -0.05580000       0.00280000
C        0.73880000      -1.05480000       0.96930000
C       -0.08010000      -1.91790000      -0.04290000
C       -1.25280000      -0.90200000       0.15150000
C        0.44930000      -0.99090000      -1.17660000
C       -0.17720000      -3.40060000      -0.05810000
C       -0.28050000      -4.17390000      -1.30300000
O        0.95050000      -4.11240000      -0.58180000
H        0.92950000       1.63680000      -0.07080000
H        1.82710000      -1.13340000       0.89790000
H        0.39480000      -1.05890000       2.00710000
H       -1.73450000      -0.89060000       1.13270000
H       -1.98020000      -0.83590000      -0.66180000
H       -0.15790000      -0.92810000      -2.08380000
H        1.51650000      -1.06550000      -1.40090000
H       -0.59520000      -3.84440000       0.84770000
H       -0.78080000      -5.14150000      -1.29590000
H       -0.28740000      -3.65230000      -2.25860000
