16
Properties=species:S:1:pos:R:3 gdb_46733=T pbc="F F F"
N       -0.06440000       1.22070000       0.38260000
C       -0.01750000       0.01960000      -0.00400000
O        1.10630000      -0.60750000      -0.45900000
C        0.86750000      -1.96310000      -0.88370000
C       -0.61690000      -2.26140000      -0.62740000
C       -0.97950000      -2.95790000       0.70610000
O       -0.26240000      -2.27470000       1.73890000
C       -1.48810000      -1.70180000       1.27600000
C       -1.18160000      -0.93460000      -0.03500000
H        0.85790000       1.65480000       0.31610000
H        1.12910000      -2.03200000      -1.94430000
H        1.53110000      -2.61560000      -0.30980000
H       -1.14840000      -2.65230000      -1.49490000
H       -1.25420000      -3.99050000       0.88630000
H       -2.25390000      -1.49590000       2.01320000
H       -2.06420000      -0.51580000      -0.51640000
