14
Properties=species:S:1:pos:R:3 gdb_2669=T pbc="F F F"
C       -0.02470000       1.56260000       0.02040000
C       -0.00280000       0.03330000       0.01030000
C        0.71000000      -0.52530000      -1.24180000
C        0.74570000      -1.97690000      -1.27830000
C        0.76310000      -3.18540000      -1.28660000
C        0.78490000      -4.55000000      -1.29970000
N        0.80320000      -5.71180000      -1.31080000
H        0.98980000       1.97580000       0.01530000
H       -0.55060000       1.95950000      -0.85470000
H       -0.53280000       1.93830000       0.91300000
H        0.50470000      -0.34520000       0.90390000
H       -1.02380000      -0.36140000       0.04100000
H        0.20940000      -0.15790000      -2.14760000
H        1.73820000      -0.14190000      -1.28450000
