18
Properties=species:S:1:pos:R:3 gdb_116412=T pbc="F F F"
C        0.54970000       0.57080000       0.47950000
O       -0.10990000      -0.55880000      -0.06970000
C       -1.52860000      -0.44280000      -0.11040000
C       -2.04870000      -1.60470000      -0.96790000
O       -2.36520000      -2.76310000      -0.19340000
C       -1.66770000      -2.81690000       1.00500000
O       -2.06140000      -1.74440000       1.87750000
C       -2.10920000      -0.51770000       1.29300000
N       -2.57420000       0.50840000       1.87070000
H        1.62040000       0.36450000       0.41910000
H        0.32290000       1.47930000      -0.09680000
H        0.27000000       0.74780000       1.52490000
H       -1.81950000       0.52090000      -0.54500000
H       -2.97250000      -1.31700000      -1.47620000
H       -1.28330000      -1.84070000      -1.71800000
H       -1.95480000      -3.73570000       1.51720000
H       -0.58250000      -2.76590000       0.85400000
H       -2.90780000       0.26400000       2.80680000
