12
Properties=species:S:1:pos:R:3 gdb_130863=T pbc="F F F"
O       -0.03290000      -0.01710000      -0.00270000
C        0.02150000       1.18210000       0.00720000
C        1.29160000       1.97730000       0.00080000
C        1.23550000       3.33390000       0.01300000
C        2.46950000       4.09510000       0.00660000
O        2.61840000       5.29720000       0.01500000
N        3.57190000       3.21700000      -0.01270000
N        3.57920000       1.87510000      -0.02430000
N        2.47250000       1.24990000      -0.01790000
H       -0.89140000       1.81720000       0.02250000
H        0.29570000       3.87520000       0.02750000
H        4.49670000       3.63100000      -0.01910000
