25
Properties=species:S:1:pos:R:3 gdb_115704=T pbc="F F F"
C        0.83490000      -1.42100000      -2.20790000
C        0.30830000      -0.48270000      -1.10870000
C        0.48310000       0.97850000      -1.55560000
C       -1.15270000      -0.71390000      -0.66390000
C       -2.19910000      -1.00260000      -1.78840000
C       -2.23920000      -2.49220000      -1.35210000
C       -1.56190000      -2.08260000      -0.01790000
C       -0.54490000      -2.99730000       0.63580000
O       -1.25570000      -4.12320000       1.13960000
H        1.88770000      -1.20100000      -2.41510000
H        0.76950000      -2.47650000      -1.93370000
H        0.28700000      -1.28700000      -3.14670000
H        0.93880000      -0.62940000      -0.21960000
H       -0.15330000       1.20250000      -2.42000000
H        0.21450000       1.67660000      -0.75620000
H        1.51880000       1.18230000      -1.84730000
H       -1.41940000       0.13630000      -0.02690000
H       -3.14700000      -0.49110000      -1.60060000
H       -1.90210000      -0.79050000      -2.81840000
H       -3.21710000      -2.97360000      -1.28610000
H       -1.58890000      -3.12130000      -1.96730000
H       -2.33660000      -1.89110000       0.73340000
H        0.22410000      -3.31460000      -0.08360000
H       -0.02930000      -2.45850000       1.44890000
H       -0.61850000      -4.73380000       1.52140000
