12
Properties=species:S:1:pos:R:3 gdb_25316=T pbc="F F F"
O        0.01090000      -0.10590000      -0.00130000
C       -0.00870000       1.10350000       0.00970000
C        1.17290000       1.95380000       0.00300000
C        1.33190000       3.32170000       0.01310000
N        2.69180000       3.61530000      -0.00050000
C        3.25950000       2.45130000      -0.01750000
O        2.42230000       1.39980000      -0.01670000
C        0.32920000       4.31460000       0.03390000
C       -0.53040000       5.15640000       0.05130000
H       -0.95190000       1.68610000       0.02590000
H        4.31610000       2.23170000      -0.03200000
H       -1.28600000       5.90340000       0.06570000
