17
Properties=species:S:1:pos:R:3 gdb_46589=T pbc="F F F"
O       -0.01730000      -0.02400000      -0.02740000
C        0.00310000       1.17910000      -0.02500000
C       -1.27160000       2.09330000      -0.11420000
N       -0.87210000       3.37310000      -0.74980000
C        0.56870000       3.43330000      -0.59360000
C        1.13380000       3.37680000       0.77280000
C        1.16230000       2.11080000      -0.08970000
N        2.19180000       2.12680000      -1.13540000
C        1.66540000       3.42540000      -1.66910000
H       -2.04990000       1.58280000      -0.68450000
H       -1.67120000       2.26320000       0.89380000
H       -1.08670000       3.32740000      -1.74020000
H        2.09490000       3.83140000       0.99410000
H        0.42530000       3.39780000       1.59270000
H        3.14390000       2.16620000      -0.78320000
H        1.28020000       3.30680000      -2.68810000
H        2.36050000       4.27250000      -1.65040000
