21
Properties=species:S:1:pos:R:3 gdb_83346=T pbc="F F F"
C       -0.04700000       1.50330000       0.05010000
C       -0.00870000      -0.01320000       0.03070000
C        0.64670000      -0.67250000      -1.22890000
C        0.13640000      -2.14690000      -1.18170000
C       -0.75330000      -2.16730000       0.10260000
C        0.18620000      -1.96620000       1.28090000
C        0.62940000      -0.70350000       1.23240000
C       -1.38430000      -0.75280000       0.01370000
O       -2.28390000      -0.39770000       1.03240000
H        0.95710000       1.93100000       0.14700000
H       -0.48840000       1.89790000      -0.87170000
H       -0.65290000       1.86240000       0.88810000
H        0.30440000      -0.16340000      -2.13610000
H        1.73660000      -0.59840000      -1.20370000
H       -0.46170000      -2.38910000      -2.06540000
H        0.94860000      -2.87470000      -1.12400000
H       -1.44550000      -3.00710000       0.16730000
H        0.51020000      -2.74910000       1.95610000
H        1.38380000      -0.24720000       1.86340000
H       -1.92370000      -0.59270000      -0.92590000
H       -1.83010000      -0.55870000       1.86980000
