16
Properties=species:S:1:pos:R:3 gdb_66026=T pbc="F F F"
C       -0.18970000       1.56500000       0.01830000
C       -0.06810000       0.03780000       0.00340000
C        1.19260000      -0.48000000      -0.75440000
O        1.86190000      -0.81130000       0.48190000
C        0.67480000      -0.58020000       1.25130000
C        0.89650000       0.28660000       2.40820000
N        1.04980000       0.97770000       3.32160000
C       -1.32410000      -0.60670000      -0.33050000
C       -2.36420000      -1.14270000      -0.60600000
H        0.76810000       2.02510000       0.27630000
H       -0.49570000       1.92000000      -0.96950000
H       -0.93640000       1.88950000       0.74720000
H        1.01630000      -1.36590000      -1.37270000
H        1.74100000       0.27560000      -1.32530000
H        0.21710000      -1.51700000       1.59080000
H       -3.28450000      -1.61390000      -0.85030000
