17
Properties=species:S:1:pos:R:3 gdb_34912=T pbc="F F F"
C       -0.18540000      -1.26710000      -0.32970000
C       -0.07580000      -0.08800000      -0.12600000
C        0.03800000       1.34750000       0.09250000
C       -0.59570000       1.85920000       1.40310000
N        0.01670000       1.36470000       2.64040000
C        0.39630000       2.69670000       2.13020000
C        1.68190000       2.71730000       1.32620000
N        2.33730000       1.40180000       1.18930000
C        1.48150000       1.89240000       0.10410000
H       -0.26960000      -2.31290000      -0.49140000
H       -0.48180000       1.86620000      -0.72540000
H       -1.65780000       2.08370000       1.39250000
H       -0.64720000       1.47200000       3.40390000
H        0.10790000       3.58610000       2.68010000
H        2.28200000       3.62080000       1.32040000
H        3.31160000       1.53530000       0.92820000
H        1.93150000       2.14100000      -0.85210000
