16
Properties=species:S:1:pos:R:3 gdb_48269=T pbc="F F F"
O       -0.33390000       0.51930000      -0.66420000
C        0.18310000       1.04930000       0.27850000
C        1.32470000       2.08040000       0.14570000
C        1.43850000       2.64810000      -1.28390000
C        2.76560000       3.31330000      -1.55020000
C        2.88330000       4.49080000      -2.41780000
O        2.95920000       4.61460000      -0.99680000
C        1.16720000       3.09830000       1.18500000
N        0.98590000       3.86200000       2.03290000
H       -0.10570000       0.81610000       1.32350000
H        2.23980000       1.51390000       0.38570000
H        1.29470000       1.81130000      -1.97440000
H        0.62480000       3.35780000      -1.45760000
H        3.63770000       2.66130000      -1.45940000
H        3.81190000       4.67570000      -2.95520000
H        1.98870000       4.91000000      -2.87650000
