17
Properties=species:S:1:pos:R:3 gdb_14679=T pbc="F F F"
C        0.68440000       0.90010000       0.35180000
O       -0.00120000       0.12410000      -0.62250000
C        0.65660000      -0.97100000      -1.05440000
N        0.12770000      -1.71860000      -1.91740000
C        0.84760000      -2.90070000      -2.37780000
C        2.17300000      -3.17230000      -1.80980000
C        3.26080000      -3.38770000      -1.33800000
C        4.57760000      -3.67180000      -0.78430000
H        0.87990000       0.32160000       1.26320000
H        1.63300000       1.28950000      -0.03770000
H        0.02890000       1.73710000       0.59510000
H        1.64250000      -1.12930000      -0.59920000
H        0.19650000      -3.76790000      -2.20230000
H        0.93310000      -2.82550000      -3.47040000
H        4.99780000      -4.58510000      -1.22000000
H        5.28170000      -2.85680000      -0.98540000
H        4.53420000      -3.81430000       0.30110000
