20
Properties=species:S:1:pos:R:3 gdb_6798=T pbc="F F F"
C        0.20270000       1.10430000       0.31760000
C       -0.20040000      -0.27750000      -0.19070000
O        0.51760000      -1.31010000       0.49440000
C       -1.71160000      -0.50540000      -0.10820000
O       -2.04960000      -1.69600000      -0.78210000
C       -2.89490000      -2.62800000      -0.12060000
C       -2.11320000      -3.90690000       0.16030000
O       -1.02710000      -3.68180000       1.02990000
H        1.28820000       1.22090000       0.27230000
H       -0.25700000       1.89610000      -0.28180000
H       -0.11410000       1.24780000       1.35860000
H        0.09740000      -0.39120000      -1.23860000
H        0.39630000      -1.17690000       1.44250000
H       -2.01450000      -0.54520000       0.94940000
H       -2.23320000       0.34960000      -0.56740000
H       -3.26920000      -2.20910000       0.82300000
H       -3.75860000      -2.84090000      -0.76640000
H       -2.77460000      -4.63730000       0.64230000
H       -1.78560000      -4.33930000      -0.79910000
H       -0.44490000      -3.03270000       0.60290000
