21
Properties=species:S:1:pos:R:3 gdb_101465=T pbc="F F F"
O        0.03630000       1.48400000       0.00160000
C        0.09530000       0.08080000       0.14210000
C       -1.30450000      -0.53200000       0.02650000
O       -1.92460000      -0.04490000      -1.16910000
C       -1.33110000      -2.06820000       0.09900000
C       -2.78030000      -2.63900000       0.11410000
C       -2.77920000      -3.86610000      -0.83400000
C       -1.49890000      -3.70150000      -1.61410000
C       -0.71240000      -2.75310000      -1.10610000
H       -0.58600000       1.63550000      -0.72220000
H        0.76420000      -0.36640000      -0.61400000
H        0.52340000      -0.13570000       1.12760000
H       -1.91430000      -0.12310000       0.84140000
H       -1.63050000      -0.61170000      -1.89420000
H       -0.78540000      -2.35650000       1.00990000
H       -3.11430000      -2.88840000       1.12370000
H       -3.45620000      -1.87420000      -0.27810000
H       -2.76400000      -4.81520000      -0.28020000
H       -3.66680000      -3.90450000      -1.47570000
H       -1.24340000      -4.33520000      -2.45700000
H        0.28040000      -2.51360000      -1.47220000
