21
Properties=species:S:1:pos:R:3 gdb_88984=T pbc="F F F"
C        0.02140000       1.64140000       0.32640000
C        0.70170000       0.30350000       0.19730000
O        2.00460000       0.16880000       0.79450000
C        0.92280000      -0.64480000       1.30520000
C        0.47310000      -0.42650000       2.73270000
C        1.51500000      -0.73790000       3.80790000
C        2.94580000      -1.16360000       3.48610000
C        2.66940000       0.21550000       4.01810000
O        2.80840000       1.36090000       3.23780000
H        0.17080000       2.07620000       1.31610000
H        0.42680000       2.33890000      -0.41360000
H       -1.05340000       1.54310000       0.13920000
H        0.65840000      -0.12840000      -0.80420000
H        1.03990000      -1.69420000       1.03130000
H        0.12760000       0.60380000       2.86480000
H       -0.40090000      -1.07100000       2.88450000
H        1.08940000      -1.17070000       4.70880000
H        3.41960000      -1.89470000       4.13280000
H        3.23430000      -1.24110000       2.44360000
H        2.95790000       0.43180000       5.04200000
H        2.68130000       1.12040000       2.30630000
