14
Properties=species:S:1:pos:R:3 gdb_16478=T pbc="F F F"
C       -0.01130000       1.50570000       0.04140000
C       -0.02280000       0.01280000      -0.04740000
C       -0.91120000      -0.92870000       0.76850000
O       -1.08570000      -2.15560000       0.05290000
C        0.34400000      -2.10330000      -0.21370000
C        0.54980000      -1.07170000       0.95250000
C        0.49360000      -0.87150000      -1.14290000
O        1.04880000      -0.66390000      -2.18440000
H        0.95070000       1.90840000      -0.29050000
H       -0.79190000       1.93600000      -0.59430000
H       -0.19050000       1.84740000       1.06590000
H       -1.70140000      -0.57730000       1.42020000
H        0.82010000      -3.06490000      -0.38100000
H        1.26410000      -0.95140000       1.75320000
