21
Properties=species:S:1:pos:R:3 gdb_106296=T pbc="F F F"
C       -0.10340000       1.50270000       0.00380000
C        0.08380000       0.01260000       0.03560000
C        1.05730000      -0.78220000      -0.88090000
C        0.71530000      -1.91340000       0.13930000
C        1.53550000      -3.16820000       0.26510000
O        0.99220000      -3.94520000       1.32550000
C        0.68570000      -0.78780000       1.22320000
C       -0.79310000      -2.04990000      -0.12390000
O       -1.17460000      -0.65960000      -0.18950000
H        0.84800000       2.01520000       0.17210000
H       -0.50300000       1.81780000      -0.96520000
H       -0.80930000       1.81510000       0.77960000
H        0.76180000      -0.91730000      -1.92510000
H        2.09340000      -0.44400000      -0.80680000
H        1.50960000      -3.72230000      -0.68880000
H        2.58710000      -2.90470000       0.46120000
H        1.51160000      -4.75030000       1.40660000
H        1.68620000      -0.45500000       1.50870000
H        0.05290000      -0.93140000       2.10180000
H       -1.02080000      -2.55210000      -1.07290000
H       -1.32420000      -2.55750000       0.68700000
