16
Properties=species:S:1:pos:R:3 gdb_42873=T pbc="F F F"
O        0.04350000       0.02260000       0.03770000
C       -0.00510000       1.21400000      -0.00170000
C       -1.11830000       2.27810000       0.06930000
C       -0.06100000       3.14360000       0.83270000
C        1.03490000       2.37210000       0.04180000
N        1.12910000       2.92730000      -1.30600000
C        0.01210000       3.18430000      -2.06000000
O        0.06000000       3.62470000      -3.18890000
C       -1.31340000       2.85890000      -1.34780000
H       -2.06140000       2.01700000       0.55170000
H       -0.09440000       4.22230000       0.66810000
H       -0.03210000       2.91740000       1.90070000
H        2.02540000       2.21240000       0.46460000
H        2.02430000       3.04580000      -1.75510000
H       -1.85740000       2.15750000      -1.98830000
H       -1.90590000       3.77940000      -1.31430000
