12
Properties=species:S:1:pos:R:3 gdb_24519=T pbc="F F F"
O       -0.06070000       1.34940000       0.00980000
C        1.25940000       1.71000000      -0.00080000
N        2.12680000       0.75770000      -0.01420000
C        1.33930000      -0.39490000      -0.01280000
C       -0.00710000      -0.01530000       0.00210000
C       -0.98880000      -0.98390000       0.00630000
N       -0.60100000      -2.26320000      -0.00430000
C        0.71480000      -2.52730000      -0.01830000
N        1.73400000      -1.66230000      -0.02340000
H        1.44800000       2.77340000       0.00310000
H       -2.05280000      -0.76590000       0.01760000
H        0.98250000      -3.58010000      -0.02640000
