16
Properties=species:S:1:pos:R:3 gdb_43480=T pbc="F F F"
N        0.02920000       1.05320000       0.70020000
C        0.07530000      -0.04700000       0.07000000
N        1.18630000      -0.74740000      -0.43870000
C        0.91490000      -2.05980000      -0.79280000
O        1.71210000      -2.88840000      -1.15450000
C       -0.59710000      -2.17440000      -0.64900000
C       -1.22370000      -2.82190000       0.62170000
C       -1.79640000      -1.41370000       0.95280000
N       -1.04830000      -0.83600000      -0.20530000
H        0.95710000       1.44590000       0.84410000
H        2.12370000      -0.37600000      -0.43790000
H       -1.03690000      -2.50630000      -1.59390000
H       -1.95250000      -3.60950000       0.42910000
H       -0.48510000      -3.18660000       1.33780000
H       -2.87680000      -1.31800000       0.82380000
H       -1.50670000      -0.96970000       1.90750000
