15
Properties=species:S:1:pos:R:3 gdb_49412=T pbc="F F F"
O       -0.70400000       1.00440000      -0.40380000
C        0.25410000       1.04660000       0.32690000
C        1.42170000       1.98460000       0.16980000
C        1.41290000       2.74650000      -1.15420000
C        0.74940000       3.91970000      -0.54370000
C        1.10580000       3.38180000       0.87600000
N        2.41640000       3.95410000       1.21670000
C        2.92860000       4.24980000       0.08940000
N        2.10910000       4.09120000      -1.07690000
H        0.32510000       0.38720000       1.22090000
H        2.34220000       1.50680000       0.51950000
H        1.31860000       2.32090000      -2.14360000
H       -0.06050000       4.55690000      -0.87630000
H        0.39060000       3.39500000       1.69450000
H        3.94030000       4.61930000      -0.03970000
