13
Properties=species:S:1:pos:R:3 gdb_47133=T pbc="F F F"
O       -0.03040000      -0.01160000       0.20010000
C       -0.02100000       1.17240000       0.01050000
N       -1.18510000       1.93060000      -0.07290000
C       -1.17500000       3.32820000       0.01680000
C       -0.04920000       3.99840000      -0.25440000
C        1.13600000       3.18990000      -0.67750000
O        1.13100000       1.86980000      -0.09890000
C       -2.39750000       3.95610000       0.40510000
N       -3.40270000       4.44090000       0.71100000
H       -2.02690000       1.42150000       0.14730000
H        0.00620000       5.07480000      -0.18180000
H        1.17780000       3.09120000      -1.77290000
H        2.07460000       3.64170000      -0.34930000
