17
Properties=species:S:1:pos:R:3 gdb_26003=T pbc="F F F"
C       -0.15390000       1.54800000       0.03440000
C        0.09480000       0.04800000       0.08350000
O        1.21200000      -0.41840000       0.22420000
N       -1.02640000      -0.72650000      -0.04180000
C       -1.06240000      -2.12910000      -0.02820000
C       -0.00480000      -3.00420000       0.11060000
N       -0.53270000      -4.27360000       0.06310000
C       -1.88880000      -4.22260000      -0.10120000
C       -2.25510000      -2.89820000      -0.16230000
H        0.42770000       1.97380000      -0.78770000
H       -1.20420000       1.82190000      -0.09610000
H        0.21630000       1.99610000       0.96040000
H       -1.91140000      -0.26120000      -0.15460000
H        1.04380000      -2.81280000       0.23470000
H        0.00930000      -5.11540000       0.13930000
H       -2.48150000      -5.12060000      -0.16120000
H       -3.25810000      -2.51890000      -0.28820000
