10
Properties=species:S:1:pos:R:3 gdb_131994=T pbc="F F F"
O       -0.05510000      -0.01020000       0.00320000
N       -0.00920000       1.19900000       0.00680000
O        0.98900000       1.90550000       0.00240000
C       -1.30840000       1.94740000       0.01750000
C       -1.32130000       3.33360000       0.02100000
N       -2.49760000       3.94890000       0.03050000
N       -3.60360000       3.20900000       0.03620000
N       -3.56620000       1.89610000       0.03280000
N       -2.40500000       1.23630000       0.02330000
H       -0.42130000       3.93550000       0.01640000
