14
Properties=species:S:1:pos:R:3 gdb_132926=T pbc="F F F"
O        0.03080000      -0.08570000       0.02400000
C       -0.01570000       1.13870000       0.01270000
C       -1.23670000       1.92740000       0.02420000
C       -1.23840000       3.29130000       0.00140000
N       -2.37710000       4.09430000      -0.07890000
H       -3.23180000       3.55890000      -0.01590000
H       -2.39270000       4.85600000       0.58910000
N       -0.05540000       3.98220000       0.00270000
C        1.15690000       3.32210000      -0.00010000
C        1.19800000       1.97580000       0.01400000
F        2.37300000       1.35300000       0.03310000
H       -2.17520000       1.38760000       0.06810000
H       -0.07470000       4.96770000      -0.20250000
H        2.04800000       3.93520000      -0.00440000
