15
Properties=species:S:1:pos:R:3 gdb_42567=T pbc="F F F"
O        0.10540000       0.11230000       0.16690000
C        0.05940000       1.30670000       0.14810000
C       -1.05090000       2.31710000       0.10050000
C       -0.14900000       3.19240000      -0.78140000
C       -0.46060000       3.64570000       0.61310000
C        0.96170000       3.35780000       1.03680000
C        1.94450000       4.26050000       1.62360000
O        1.44090000       3.10940000       2.33500000
C        1.09430000       2.41620000      -0.16760000
H       -2.11870000       2.16450000       0.02700000
H       -0.33390000       3.60510000      -1.75930000
H       -1.12090000       4.44080000       0.93410000
H        2.98920000       4.20020000       1.32280000
H        1.62960000       5.22450000       2.02160000
H        2.04480000       2.19020000      -0.64100000
