16
Properties=species:S:1:pos:R:3 gdb_640=T pbc="F F F"
C        0.25200000       1.55560000       0.00800000
C        1.33410000       0.49700000      -0.00810000
C       -0.11500000       0.10390000       0.00370000
C       -0.80470000      -0.71940000       1.10170000
C       -1.22260000      -1.74310000       0.00440000
C       -0.82580000      -0.70750000      -1.08960000
H        0.10290000       2.11970000       0.92380000
H        0.08530000       2.12950000      -0.89860000
H        1.89690000       0.35660000      -0.92610000
H        1.91450000       0.34670000       0.89720000
H       -0.17350000      -1.09210000       1.91350000
H       -1.66410000      -0.20160000       1.54070000
H       -0.57620000      -2.62410000      -0.00660000
H       -2.26250000      -2.07650000       0.01270000
H       -1.69350000      -0.18510000      -1.50630000
H       -0.21050000      -1.07140000      -1.91740000
