20
Properties=species:S:1:pos:R:3 gdb_8945=T pbc="F F F"
C       -0.03690000       1.61630000      -0.09410000
C        0.01290000       0.08310000      -0.00430000
C        0.71920000      -0.51130000      -1.22660000
O        0.01210000      -0.10900000      -2.39120000
C        0.66340000      -0.44980000       1.28410000
O        2.02030000      -0.01080000       1.44920000
C       -0.11250000      -0.14760000       2.56920000
O        0.54990000      -0.69880000       3.68820000
H        0.96870000       2.05530000      -0.06130000
H       -0.47890000       1.91060000      -1.04750000
H       -0.62890000       2.05940000       0.71100000
H       -1.01930000      -0.29330000      -0.01870000
H        1.76300000      -0.16410000      -1.24800000
H        0.73920000      -1.60920000      -1.13790000
H        0.50850000      -0.40100000      -3.16080000
H        0.75030000      -1.54080000       1.21040000
H        2.01610000       0.95360000       1.45710000
H       -0.24260000       0.94280000       2.68280000
H       -1.11250000      -0.59330000       2.52310000
H        1.48920000      -0.53350000       3.53270000
