18
Properties=species:S:1:pos:R:3 gdb_34948=T pbc="F F F"
N       -0.04440000      -1.13480000      -0.06930000
C       -0.00280000       0.01880000      -0.00020000
C        0.04850000       1.47450000       0.06370000
C       -0.35510000       2.09030000       1.43310000
C        0.67030000       1.43820000       2.39700000
C        1.67990000       2.29780000       1.62470000
C        0.57860000       3.38170000       1.39380000
C        1.10400000       3.60910000      -0.03040000
C        1.47280000       2.10500000       0.05720000
H       -0.55300000       1.86450000      -0.76320000
H       -1.41870000       2.14000000       1.66020000
H        0.55480000       1.80860000       3.41940000
H        0.75730000       0.34880000       2.40430000
H        2.68750000       2.52780000       1.96690000
H        0.35550000       4.17520000       2.10530000
H        0.42850000       3.93190000      -0.82940000
H        1.98910000       4.25100000      -0.01560000
H        2.22180000       1.64510000      -0.58450000
