19
Properties=species:S:1:pos:R:3 gdb_2293=T pbc="F F F"
C       -0.07760000       1.57400000      -0.02860000
C       -0.05260000       0.04370000      -0.05950000
C        0.81570000      -0.52230000      -1.18970000
C        0.82950000      -2.04480000      -1.23730000
C       -0.43730000      -2.76280000      -1.76200000
O        0.30110000      -3.39260000      -2.82790000
C        1.51700000      -2.71760000      -2.44760000
H        0.92940000       1.98360000       0.10850000
H       -0.47440000       1.98230000      -0.96470000
H       -0.70270000       1.94710000       0.78860000
H        0.31440000      -0.33810000       0.90250000
H       -1.07760000      -0.33630000      -0.16430000
H        0.45970000      -0.13510000      -2.15500000
H        1.84540000      -0.15540000      -1.07590000
H        1.17350000      -2.44760000      -0.27980000
H       -0.89800000      -3.49890000      -1.09200000
H       -1.22190000      -2.09500000      -2.14550000
H        1.86220000      -2.02300000      -3.22620000
H        2.32520000      -3.42380000      -2.22080000
