19
Properties=species:S:1:pos:R:3 gdb_40381=T pbc="F F F"
C       -0.85960000      -0.38750000      -1.08390000
C       -1.04190000       0.96850000      -0.49940000
N       -0.06190000       0.03310000       0.06300000
C       -0.36870000      -0.53730000       1.32990000
C       -0.33210000      -1.99450000       1.64740000
C       -1.58440000      -1.19860000       1.97240000
N       -1.53780000      -0.26420000       3.16830000
C       -0.25070000      -0.39510000       3.88140000
C       -0.28520000       0.33740000       2.59750000
H       -1.66030000      -1.10540000      -0.91730000
H       -0.31020000      -0.52300000      -2.01060000
H       -0.62400000       1.84110000      -0.99190000
H       -1.95500000       1.14300000       0.06510000
H       -0.48160000      -2.62360000       0.77360000
H        0.32970000      -2.44270000       2.38150000
H       -2.56430000      -1.48590000       1.61250000
H       -0.22760000       0.20830000       4.78510000
H        0.23320000      -1.35880000       3.98560000
H       -0.17250000       1.41500000       2.52920000
