21
Properties=species:S:1:pos:R:3 gdb_122173=T pbc="F F F"
C       -0.13810000       1.47490000      -0.25800000
C       -0.05990000      -0.00290000       0.08520000
O       -1.33560000      -0.58130000      -0.11020000
C       -1.38350000      -1.96630000       0.19540000
C       -2.83350000      -2.36790000       0.12430000
O       -3.65040000      -1.63530000       0.99090000
C       -3.42270000      -2.82100000      -1.20370000
C       -3.21750000      -3.79450000      -0.05820000
O       -2.18500000      -4.73740000      -0.11290000
H        0.83700000       1.95060000      -0.11780000
H       -0.44530000       1.61210000      -1.29870000
H       -0.86530000       1.98100000       0.38360000
H        0.68460000      -0.50910000      -0.55160000
H        0.26350000      -0.14320000       1.13020000
H       -0.77240000      -2.55310000      -0.50280000
H       -1.00040000      -2.14160000       1.21360000
H       -3.43530000      -0.70880000       0.82260000
H       -4.43820000      -2.51650000      -1.42960000
H       -2.74990000      -2.89600000      -2.05160000
H       -4.10980000      -4.10710000       0.48370000
H       -2.42680000      -5.40090000      -0.76750000
