17
Properties=species:S:1:pos:R:3 gdb_110433=T pbc="F F F"
C        0.08600000       1.18050000       0.36390000
O        0.00110000      -0.11890000      -0.18630000
C       -1.27600000      -0.67510000      -0.10940000
C       -1.41750000      -2.10250000      -0.61860000
C       -2.38580000      -2.43870000       0.47010000
C       -0.97240000      -3.05130000       0.50320000
C       -0.68200000      -2.19130000       1.69670000
O       -0.03920000      -2.32930000       2.69690000
C       -1.79360000      -1.20830000       1.26650000
H        1.10810000       1.53100000       0.20740000
H       -0.60980000       1.87470000      -0.13230000
H       -0.12730000       1.18250000       1.44220000
H       -2.02760000      -0.01990000      -0.57620000
H       -1.40910000      -2.44520000      -1.64520000
H       -3.34240000      -2.93450000       0.49670000
H       -0.67880000      -4.07130000       0.29870000
H       -2.30720000      -0.58130000       1.98930000
