19
Properties=species:S:1:pos:R:3 gdb_56649=T pbc="F F F"
C       -0.03370000       1.45630000      -0.15610000
C        0.15840000      -0.03910000      -0.04160000
C        1.55200000      -0.65090000      -0.02420000
C        0.69060000      -0.65720000       1.21410000
O        1.00230000       0.22570000       2.25300000
C        0.08360000      -1.96910000       1.73540000
O       -0.31770000      -2.85190000       0.69720000
C        1.01880000      -2.61170000       2.66820000
C        1.83320000      -3.12160000       3.39230000
H        0.70900000       1.99310000       0.43800000
H        0.05560000       1.77970000      -1.19870000
H       -1.02440000       1.75500000       0.20300000
H       -0.58500000      -0.64530000      -0.55100000
H        1.71720000      -1.57240000      -0.57270000
H        2.39600000       0.03080000      -0.01230000
H        1.70340000      -0.18160000       2.77680000
H       -0.83490000      -1.71000000       2.27620000
H        0.46340000      -3.33240000       0.40250000
H        2.52760000      -3.58880000       4.04690000
