11
Properties=species:S:1:pos:R:3 gdb_132336=T pbc="F F F"
O        0.02330000       1.32610000       0.00770000
C       -0.00370000      -0.00590000       0.00090000
C       -1.19490000      -0.67460000       0.00370000
C       -1.21990000      -2.09520000      -0.00360000
O       -2.10050000      -2.89260000      -0.00270000
O        0.15820000      -2.67910000      -0.01360000
C        1.19010000      -1.89100000      -0.01480000
F        2.31310000      -2.55700000      -0.02410000
N        1.22730000      -0.60940000      -0.00850000
H        0.95360000       1.59310000       0.00420000
H       -2.13890000      -0.15050000       0.01140000
