14
Properties=species:S:1:pos:R:3 gdb_48832=T pbc="F F F"
O       -0.97560000       1.28000000      -0.22090000
C        0.11530000       0.92880000       0.14730000
C        1.34780000       1.75330000      -0.05580000
O        1.18920000       3.18690000      -0.06280000
C        1.61730000       2.57420000      -1.25940000
C        3.12520000       2.62870000      -1.46420000
N        3.63600000       1.91900000      -0.30140000
C        2.69730000       1.33160000       0.50280000
O        2.89450000       0.60540000       1.45150000
H        0.29320000      -0.03740000       0.65910000
H        0.92820000       2.61580000      -2.09700000
H        3.40360000       2.13150000      -2.40200000
H        3.47940000       3.66550000      -1.50180000
H        4.61600000       1.85610000      -0.07650000
