17
Properties=species:S:1:pos:R:3 gdb_29658=T pbc="F F F"
C       -0.02570000       1.44920000       0.00400000
N        0.00590000       0.00460000       0.06060000
C        0.02730000      -0.78230000      -1.07280000
O        0.02420000      -0.44330000      -2.22920000
O        0.05410000      -2.08380000      -0.63480000
C        0.04870000      -2.07850000       0.76640000
N        0.07230000      -3.28050000       1.46510000
C        0.01930000      -0.81020000       1.20330000
C        0.00250000      -0.28020000       2.59190000
H        0.85350000       1.88760000       0.48790000
H       -0.02790000       1.72590000      -1.05120000
H       -0.92690000       1.84840000       0.48130000
H       -0.73420000      -3.86200000       1.25540000
H        0.90460000      -3.82650000       1.26090000
H        0.01880000      -1.11880000       3.28990000
H        0.87080000       0.35750000       2.79570000
H       -0.89500000       0.31790000       2.78940000
