9
Properties=species:S:1:pos:R:3 gdb_8978=T pbc="F F F"
O       -0.10980000       0.02450000       0.00090000
C       -0.02380000       1.21720000       0.00660000
C        1.35770000       1.92140000      -0.00070000
O        2.39150000       1.30210000      -0.01240000
C        1.30160000       3.37200000       0.00750000
C        1.24230000       4.58100000       0.01450000
C        1.17250000       5.94380000       0.02240000
N        1.10800000       7.10330000       0.02920000
H       -0.90220000       1.89620000       0.01740000
