23
Properties=species:S:1:pos:R:3 gdb_59473=T pbc="F F F"
C        0.25380000       0.91040000      -2.04360000
C        0.24640000       0.07550000      -0.76100000
C        0.48930000       0.93940000       0.47830000
N       -1.06460000      -0.57210000      -0.64390000
C       -1.28970000      -1.81930000      -1.36020000
C       -1.23420000      -1.80110000       0.13230000
C       -0.12600000      -2.49390000       0.86390000
C       -0.12600000      -2.51570000       2.35000000
N       -0.42660000      -3.74100000       1.59010000
H        1.21610000       1.41650000      -2.16900000
H        0.08340000       0.28200000      -2.92330000
H       -0.53670000       1.66640000      -2.00870000
H        1.05960000      -0.66700000      -0.83690000
H       -0.30040000       1.69100000       0.57540000
H        0.49470000       0.33200000       1.38780000
H        1.45230000       1.45450000       0.40650000
H       -2.23540000      -1.91330000      -1.88830000
H       -0.43980000      -2.27670000      -1.86840000
H       -2.17820000      -1.82860000       0.68120000
H        0.83170000      -2.52670000       0.35230000
H        0.81150000      -2.53540000       2.89820000
H       -0.93920000      -2.00500000       2.86050000
H       -1.43170000      -3.90460000       1.58480000
