21
Properties=species:S:1:pos:R:3 gdb_123183=T pbc="F F F"
O       -0.15010000       1.38610000       0.08870000
C       -0.00820000      -0.00950000      -0.08700000
C       -1.36240000      -0.69900000      -0.14320000
O       -2.06370000      -0.12740000      -1.23300000
C       -3.40440000      -0.55930000      -1.34140000
C       -4.03440000       0.12050000      -2.55260000
C       -5.48440000      -0.25970000      -2.71850000
C       -6.09750000      -0.46640000      -4.03550000
O       -5.74590000      -1.57880000      -3.21170000
H       -0.79870000       1.66290000      -0.56940000
H        0.55190000      -0.24540000      -1.00600000
H        0.56630000      -0.38950000       0.76410000
H       -1.24570000      -1.78680000      -0.27720000
H       -1.91180000      -0.52490000       0.79590000
H       -3.44960000      -1.65280000      -1.46140000
H       -3.96210000      -0.30740000      -0.42310000
H       -3.95230000       1.20820000      -2.43570000
H       -3.47480000      -0.15760000      -3.45150000
H       -6.14380000       0.03620000      -1.89960000
H       -7.16570000      -0.30130000      -4.16950000
H       -5.49250000      -0.33960000      -4.93260000
