17
Properties=species:S:1:pos:R:3 gdb_2045=T pbc="F F F"
C       -0.14450000       1.55410000      -0.03600000
C        0.01410000       0.03840000      -0.01110000
O       -1.26680000      -0.55200000      -0.16340000
C        1.20810000      -0.65520000      -0.76710000
C        2.13960000      -0.14880000       0.37240000
C        0.85950000      -0.67020000       1.08910000
C        0.94470000      -1.90180000       0.13210000
H        0.78760000       2.10060000       0.10870000
H       -0.55810000       1.87050000      -1.00280000
H       -0.85070000       1.86210000       0.74120000
H       -1.69780000      -0.13460000      -0.91580000
H        1.41050000      -0.64160000      -1.84040000
H        3.03770000      -0.74790000       0.53830000
H        2.37230000       0.91490000       0.42660000
H        0.65550000      -0.67660000       2.16140000
H        0.02590000      -2.45550000      -0.04400000
H        1.80270000      -2.56020000       0.28780000
