18
Properties=species:S:1:pos:R:3 gdb_112465=T pbc="F F F"
C       -0.17150000       1.38720000      -0.08340000
O        0.22470000       0.04390000       0.07250000
C        0.74150000      -0.55970000      -1.11430000
C        1.25580000      -1.93880000      -0.69390000
C        0.16650000      -2.98210000      -0.49300000
O        0.22910000      -3.89080000       0.30560000
N       -0.89660000      -2.85960000      -1.37030000
C       -1.06570000      -1.78980000      -2.24440000
C       -0.29910000      -0.69620000      -2.20060000
H        0.65280000       2.01160000      -0.46470000
H       -1.02940000       1.49400000      -0.76210000
H       -0.45970000       1.75280000       0.90510000
H        1.58750000       0.04600000      -1.47700000
H        1.91660000      -2.32480000      -1.48080000
H        1.83390000      -1.86980000       0.22850000
H       -1.59310000      -3.58700000      -1.31400000
H       -1.86190000      -1.92240000      -2.96880000
H       -0.46030000       0.10170000      -2.91350000
