19
Properties=species:S:1:pos:R:3 gdb_39660=T pbc="F F F"
C        0.24780000       1.58580000       0.11250000
O        1.65870000       1.32400000      -0.12300000
C        1.42760000      -0.08290000       0.00190000
C       -0.06990000       0.09460000       0.13260000
C        0.53140000      -0.58980000      -1.08920000
C        0.51880000      -0.03050000      -2.48460000
C        1.23300000      -0.85110000      -3.58650000
O        0.02550000      -0.94250000      -4.36840000
C       -0.74180000      -0.26890000      -3.35110000
H        0.11030000       2.06850000       1.08620000
H       -0.20110000       2.20520000      -0.67280000
H        2.15710000      -0.66620000       0.55250000
H       -0.78370000      -0.38990000       0.78480000
H        0.38920000      -1.66900000      -1.03540000
H        0.84150000       1.01120000      -2.47070000
H        2.03790000      -0.34150000      -4.12900000
H        1.59220000      -1.83950000      -3.26680000
H       -1.49370000      -0.92940000      -2.89710000
H       -1.24540000       0.62470000      -3.73990000
