13
Properties=species:S:1:pos:R:3 gdb_129169=T pbc="F F F"
N       -0.10310000       1.29740000      -0.04860000
C        0.01390000       0.03230000       0.01320000
N       -1.11530000      -0.82350000       0.06640000
C       -0.67030000      -2.12060000      -0.03090000
C        0.69920000      -2.13630000      -0.03610000
N        1.13750000      -0.81340000       0.05380000
N        1.16100000      -3.39560000      -0.03390000
N        0.11910000      -4.20000000      -0.04240000
N       -1.01840000      -3.41590000      -0.01540000
H        0.79920000       1.76410000      -0.06800000
H       -2.03060000      -0.45310000      -0.12220000
H        2.05560000      -0.47960000      -0.18170000
H       -1.91830000      -3.86500000      -0.03150000
