18
Properties=species:S:1:pos:R:3 gdb_22850=T pbc="F F F"
O       -0.13930000       1.44460000      -0.26900000
N        0.11620000       0.09070000      -0.00360000
C       -0.94460000      -0.61860000       0.07200000
C       -0.73790000      -2.09730000       0.29140000
C       -1.70270000      -2.73230000       1.30120000
O       -3.03950000      -2.66020000       0.81230000
C       -3.76490000      -1.54280000       1.24910000
O       -3.04350000      -0.34170000       1.20460000
C       -2.36050000      -0.08340000      -0.02290000
H        0.74570000       1.82240000      -0.24310000
H       -0.89290000      -2.61870000      -0.66370000
H        0.30040000      -2.26860000       0.58990000
H       -1.46790000      -3.79600000       1.40680000
H       -1.61690000      -2.26050000       2.28800000
H       -4.65140000      -1.51150000       0.59860000
H       -4.07230000      -1.63960000       2.30070000
H       -2.34540000       0.99680000      -0.15600000
H       -2.88820000      -0.54160000      -0.87050000
