18
Properties=species:S:1:pos:R:3 gdb_100204=T pbc="F F F"
O        0.08660000       1.41280000       0.17790000
C        0.14810000       0.00730000      -0.01910000
C       -1.26380000      -0.59050000       0.05050000
O       -1.92370000      -0.12360000       1.22530000
C       -2.13050000      -0.07190000      -1.10730000
O       -1.78500000       0.78490000      -1.88650000
C       -1.25730000      -2.10690000       0.05990000
C       -1.03860000      -2.84720000       1.32630000
N       -2.36500000      -2.84640000       0.68280000
H       -0.30770000       1.77150000      -0.62900000
H        0.62680000      -0.25230000      -0.97170000
H        0.75060000      -0.40200000       0.79640000
H       -1.58000000       0.77370000       1.35970000
H       -3.15120000      -0.50670000      -1.14120000
H       -0.90250000      -2.54710000      -0.87070000
H       -0.51700000      -3.79930000       1.30800000
H       -0.91410000      -2.26150000       2.23140000
H       -2.95400000      -2.18160000       1.18120000
