16
Properties=species:S:1:pos:R:3 gdb_19712=T pbc="F F F"
C       -0.02670000       1.54180000       0.09790000
C        1.29250000       0.82140000      -0.01710000
C        0.00200000       0.03830000      -0.00850000
C        0.06390000      -0.67330000      -1.40310000
O        1.47470000      -0.95030000      -1.50040000
C        1.88150000       0.42960000      -1.41530000
C        1.03160000       1.05430000      -2.51930000
C       -0.10850000       0.36250000      -2.51170000
H       -0.26860000       1.95130000       1.07470000
H       -0.38980000       2.13100000      -0.73560000
H        1.97320000       0.80130000       0.82500000
H       -0.28630000      -0.56960000       0.84010000
H       -0.51490000      -1.59270000      -1.47350000
H        2.96350000       0.51790000      -1.49680000
H        1.28800000       1.93560000      -3.09080000
H       -1.01420000       0.53870000      -3.07550000
