12
Properties=species:S:1:pos:R:3 gdb_42383=T pbc="F F F"
N       -0.57060000      -0.25550000      -1.56530000
C       -0.17420000      -0.26240000      -0.35900000
N       -1.02160000      -0.09600000       0.72210000
C       -2.39490000       0.10170000       0.73650000
N       -2.96530000       0.23110000       1.87040000
C       -3.12800000       0.15430000      -0.51080000
N       -3.87940000       0.22510000      -1.38680000
C        1.21160000      -0.44450000       0.04290000
N        2.32480000      -0.59270000       0.31710000
H        0.19410000      -0.39240000      -2.22070000
H       -0.62130000      -0.11470000       1.65000000
H       -3.96800000       0.37060000       1.76700000
