18
Properties=species:S:1:pos:R:3 gdb_81630=T pbc="F F F"
O        0.02900000       1.51260000      -0.23070000
C        0.02310000       0.12740000      -0.05000000
C        0.08900000      -0.52220000       1.37420000
C       -1.41060000      -0.12840000       1.54020000
C       -1.31000000      -0.68430000       0.08680000
C       -0.45420000      -1.82840000       0.71490000
N        0.39230000      -2.66100000      -0.10050000
C        0.43070000      -4.01820000       0.03080000
O       -0.21850000      -4.66870000       0.82070000
H       -0.58590000       1.92220000       0.38570000
H        0.74210000      -0.24140000      -0.78480000
H        0.88490000      -0.43830000       2.11500000
H       -1.99490000      -0.71900000       2.24950000
H       -1.64360000       0.93200000       1.65990000
H       -2.11320000      -0.78560000      -0.64390000
H       -0.99510000      -2.49290000       1.38640000
H        0.98750000      -2.25080000      -0.80080000
H        1.14230000      -4.47470000      -0.68570000
