18
Properties=species:S:1:pos:R:3 gdb_78950=T pbc="F F F"
C       -0.03880000       1.49690000       0.08420000
C       -0.01020000      -0.00620000       0.07340000
C        0.79620000      -0.77790000      -0.98900000
C        1.70900000      -1.41610000      -0.01270000
C        0.77400000      -0.91800000       1.11880000
C       -0.26940000      -1.97700000       0.65390000
C       -1.27890000      -0.87010000       0.28680000
O       -1.99070000      -0.37000000       1.40120000
N        0.57950000      -2.21720000      -0.58130000
H        0.97420000       1.91190000       0.12430000
H       -0.52290000       1.88730000      -0.81940000
H       -0.59810000       1.86210000       0.95000000
H        0.91880000      -0.56870000      -2.04500000
H        2.74460000      -1.72680000      -0.07660000
H        1.00780000      -0.62330000       2.13690000
H       -0.54500000      -2.89000000       1.18200000
H       -1.93170000      -1.04380000      -0.58080000
H       -2.63310000      -1.03380000       1.67140000
