19
Properties=species:S:1:pos:R:3 gdb_41716=T pbc="F F F"
C        0.00330000       1.52950000      -0.04060000
O        1.43070000       1.77640000      -0.02960000
C        1.95260000       0.44720000       0.03710000
C        1.11820000      -0.33870000      -1.01600000
C        1.44580000      -1.82820000      -1.15100000
C        1.58290000      -2.47180000       0.20320000
C        1.41080000      -1.71660000       1.28640000
C        1.08490000      -0.25890000       1.12300000
C       -0.00920000       0.00380000       0.02370000
H       -0.46640000       2.01220000       0.82500000
H       -0.44170000       1.93440000      -0.95800000
H        3.04150000       0.46930000       0.06460000
H        1.03730000       0.14730000      -1.99310000
H        0.66750000      -2.33310000      -1.74200000
H        2.37340000      -1.95070000      -1.72870000
H        1.81620000      -3.53040000       0.26470000
H        1.50270000      -2.12020000       2.29000000
H        0.97720000       0.27570000       2.06910000
H       -0.97090000      -0.50940000       0.03800000
