13
Properties=species:S:1:pos:R:3 gdb_8990=T pbc="F F F"
O       -0.16910000      -0.07130000      -0.17970000
C       -0.01890000       1.12040000      -0.14280000
C        1.32300000       1.82200000      -0.13930000
C        1.41200000       2.87170000      -1.25130000
C        2.60310000       3.79200000      -1.09490000
O        3.36300000       3.79100000      -0.16140000
C        2.78450000       4.75150000      -2.20620000
N        2.90960000       5.49520000      -3.08260000
H       -0.89520000       1.81020000      -0.10030000
H        1.44000000       2.32560000       0.82930000
H        2.11750000       1.07760000      -0.22460000
H        1.46420000       2.41070000      -2.24610000
H        0.51520000       3.50930000      -1.27830000
