17
Properties=species:S:1:pos:R:3 gdb_14266=T pbc="F F F"
C        0.00470000       1.50170000      -0.17640000
C        1.53640000       1.45810000       0.06690000
C        1.33840000       0.10690000       0.80340000
C       -0.00900000      -0.04270000       0.03390000
N        0.10900000      -0.79310000      -1.19560000
C        0.99540000      -0.55900000      -2.06350000
O        2.01040000       0.33830000      -2.15980000
C        2.36030000       1.35410000      -1.20260000
H       -0.51920000       2.02650000       0.62710000
H       -0.35570000       1.86750000      -1.14140000
H        1.96450000       2.27860000       0.65190000
H        2.08050000      -0.68060000       0.64860000
H        1.18070000       0.24860000       1.87610000
H       -0.84930000      -0.44700000       0.60210000
H        1.02490000      -1.16660000      -2.96770000
H        2.31470000       2.30350000      -1.75050000
H        3.41040000       1.16660000      -0.94650000
