18
Properties=species:S:1:pos:R:3 gdb_66508=T pbc="F F F"
C        0.06190000       1.40280000       0.16390000
C       -0.00670000      -0.08250000       0.04080000
C        0.55830000      -1.05110000      -0.95250000
C        1.31940000      -1.04450000       0.33990000
C        0.51450000      -2.13650000       0.97510000
C       -0.18360000      -2.01860000       2.12220000
C       -1.52110000      -1.39530000       1.69570000
N       -1.23940000      -0.88190000       0.29570000
C       -0.43960000      -2.01100000      -0.25730000
H        1.02410000       1.77410000      -0.20250000
H       -0.73330000       1.87880000      -0.42090000
H       -0.04650000       1.72710000       1.20580000
H        0.85420000      -0.94070000      -1.98710000
H        2.25360000      -0.56340000       0.60210000
H        0.26790000      -1.76340000       3.07630000
H       -2.38820000      -2.06070000       1.60230000
H       -1.79470000      -0.59620000       2.39330000
H       -0.95280000      -2.86590000      -0.69620000
