9
Properties=species:S:1:pos:R:3 gdb_8960=T pbc="F F F"
O        0.00310000      -0.08230000       0.00340000
C       -0.00280000       1.13030000       0.00680000
C        1.19090000       1.94100000       0.00050000
C        2.18430000       2.62020000      -0.00470000
C       -1.24420000       1.88660000       0.01730000
C       -2.29270000       2.48970000       0.02600000
C       -3.47210000       3.17560000       0.03590000
N       -4.47360000       3.76390000       0.04430000
H        3.06740000       3.21320000      -0.00930000
