16
Properties=species:S:1:pos:R:3 gdb_24236=T pbc="F F F"
C        0.02770000       1.49900000       0.09480000
C        1.32780000       0.72710000       0.01780000
N        2.04300000       0.31720000       1.23250000
C        1.10250000      -0.45410000       1.91330000
C       -0.03650000      -0.75950000       1.24580000
C       -0.75000000      -1.64810000       2.11370000
C        0.02350000      -1.77970000       3.22930000
O        1.19060000      -1.03400000       3.11720000
C       -0.01760000      -0.01310000      -0.04140000
H       -0.27960000       1.92920000       1.04210000
H       -0.21850000       2.09190000      -0.77990000
H        1.95640000       0.84650000      -0.85680000
H        2.46380000       1.07750000       1.75480000
H       -1.70520000      -2.12480000       1.95580000
H       -0.08380000      -2.31860000       4.15440000
H       -0.37280000      -0.45530000      -0.96490000
