18
Properties=species:S:1:pos:R:3 gdb_125382=T pbc="F F F"
C       -0.16400000       1.47770000       0.12060000
C        0.00360000      -0.00460000       0.01440000
C        0.11080000      -0.79010000      -1.11310000
N        0.26290000      -2.07030000      -0.69370000
N        0.26280000      -2.18680000       0.65270000
C        0.10600000      -0.93790000       1.08270000
N        0.11780000      -0.59990000       2.44470000
C       -1.16800000      -0.49540000       3.14960000
C       -0.23920000      -1.62880000       3.41210000
H       -0.01780000       1.96450000      -0.84780000
H       -1.16210000       1.75510000       0.48140000
H        0.55690000       1.90210000       0.82740000
H        0.09910000      -0.53330000      -2.16150000
H        0.39730000      -2.89390000      -1.25280000
H       -1.24760000       0.32990000       3.85090000
H       -2.06930000      -0.71240000       2.58150000
H       -0.51080000      -2.60410000       3.02050000
H        0.36370000      -1.63910000       4.31530000
