23
Properties=species:S:1:pos:R:3 gdb_56251=T pbc="F F F"
C       -0.07390000       1.50910000       0.09150000
C        0.06560000      -0.00450000       0.11250000
O        1.13790000      -0.54260000       0.26760000
C       -1.22040000      -0.80100000      -0.07360000
C       -1.03210000      -2.31540000       0.00010000
C       -2.33430000      -3.09180000      -0.23210000
C       -2.14810000      -4.59300000      -0.16330000
C       -2.19820000      -5.30950000       1.16340000
C       -3.30820000      -5.49930000       0.15740000
H        0.90830000       1.97350000       0.18670000
H       -0.55210000       1.84000000      -0.83710000
H       -0.71700000       1.84180000       0.91440000
H       -1.94600000      -0.45550000       0.67730000
H       -1.65790000      -0.50620000      -1.03910000
H       -0.28070000      -2.61710000      -0.73850000
H       -0.60950000      -2.58180000       0.97500000
H       -3.08330000      -2.78900000       0.51330000
H       -2.75430000      -2.81800000      -1.21060000
H       -1.42920000      -4.98380000      -0.88000000
H       -1.51350000      -6.13190000       1.33850000
H       -2.41480000      -4.71930000       2.04840000
H       -4.26730000      -5.03730000       0.36940000
H       -3.38090000      -6.45120000      -0.35700000
