18
Properties=species:S:1:pos:R:3 gdb_17545=T pbc="F F F"
C       -0.49350000       1.21490000       0.01300000
C        1.01640000       1.18870000      -0.00160000
C        0.24060000      -0.09980000      -0.00090000
C        0.19550000      -1.01310000       1.23040000
C       -0.52600000      -2.24980000       0.73000000
O       -1.73130000      -1.96260000       0.00830000
C       -0.54010000      -2.24220000      -0.73930000
C        0.17180000      -1.00030000      -1.24060000
H       -0.99240000       1.51100000       0.93000000
H       -1.00980000       1.52050000      -0.89120000
H        1.52600000       1.47830000      -0.91520000
H        1.54340000       1.46880000       0.90510000
H        1.20370000      -1.30130000       1.55850000
H       -0.30640000      -0.54340000       2.08280000
H       -0.54000000      -3.16470000       1.31730000
H       -0.56540000      -3.15090000      -1.33570000
H       -0.34620000      -0.52170000      -2.07820000
H        1.17360000      -1.28490000      -1.59080000
