20
Properties=species:S:1:pos:R:3 gdb_108980=T pbc="F F F"
C        0.10310000       1.50790000      -0.01480000
C       -0.07950000      -0.00820000       0.00680000
C       -1.51610000      -0.44780000       0.02940000
N       -2.50890000       0.34680000       0.03080000
C       -3.81080000      -0.32580000       0.05470000
C       -3.78000000      -1.44690000       1.13800000
C       -3.00080000      -2.25260000       0.06990000
C       -3.80510000      -1.47420000      -0.99990000
O       -1.63010000      -1.80960000       0.04810000
H        1.16700000       1.76180000      -0.03050000
H       -0.37360000       1.94660000      -0.89460000
H       -0.35300000       1.96910000       0.86440000
H        0.39830000      -0.47400000      -0.86470000
H        0.41890000      -0.45180000       0.87830000
H       -4.61700000       0.40720000       0.05480000
H       -3.27770000      -1.22820000       2.08230000
H       -4.76570000      -1.88140000       1.31680000
H       -2.96980000      -3.34160000       0.08350000
H       -4.79460000      -1.91290000      -1.14430000
H       -3.32520000      -1.28000000      -1.96100000
