17
Properties=species:S:1:pos:R:3 gdb_36243=T pbc="F F F"
N        0.05370000      -1.15030000       0.15720000
C        0.03670000      -0.00310000       0.01950000
C        0.04260000       1.45030000      -0.14500000
C        1.44680000       2.04900000       0.01800000
C        1.40720000       3.57470000       0.13310000
C        1.34770000       3.52180000       1.61470000
C        1.96170000       2.07070000       1.48590000
C        3.30580000       2.79890000       1.33890000
N        2.57180000       4.05270000       0.95400000
H       -0.36230000       1.68930000      -1.13550000
H       -0.64170000       1.89020000       0.59040000
H        2.12580000       1.60970000      -0.72130000
H        0.97720000       4.29360000      -0.55270000
H        0.77640000       4.05560000       2.36190000
H        1.81320000       1.21090000       2.13630000
H        3.81280000       2.98030000       2.28920000
H        4.02210000       2.42470000       0.59810000
