17
Properties=species:S:1:pos:R:3 gdb_133067=T pbc="F F F"
C       -0.00400000       1.51490000      -0.27070000
C       -0.02290000       0.02330000       0.10050000
C       -1.41670000      -0.55650000       0.06030000
N       -2.26910000      -0.12120000       1.00100000
C       -3.51370000      -0.59800000       0.98760000
C       -3.99120000      -1.52110000       0.06120000
C       -3.09360000      -1.95620000      -0.90010000
F       -3.48170000      -2.84000000      -1.81810000
C       -1.79160000      -1.48130000      -0.91700000
H        1.00720000       1.92340000      -0.18490000
H       -0.34710000       1.67000000      -1.29880000
H       -0.66360000       2.07660000       0.39570000
H        0.63260000      -0.54180000      -0.57040000
H        0.36760000      -0.09770000       1.11710000
H       -4.17720000      -0.22650000       1.76520000
H       -5.00950000      -1.88790000       0.08330000
H       -1.09510000      -1.82740000      -1.67110000
