15
Properties=species:S:1:pos:R:3 gdb_42270=T pbc="F F F"
O        0.09830000      -0.06750000       0.29900000
C        0.03800000       1.12710000       0.11940000
C        1.22120000       1.94920000      -0.08660000
C        2.18230000       2.65180000      -0.26600000
C       -1.25770000       1.92120000       0.14720000
O       -2.45470000       1.12370000       0.13550000
C       -2.89410000       1.73490000       1.35540000
C       -1.96180000       1.41970000       2.47640000
C       -1.62430000       2.53960000       1.50850000
H        3.04370000       3.25540000      -0.42100000
H       -1.26780000       2.65660000      -0.66680000
H       -3.94190000       1.99620000       1.43750000
H       -2.27300000       1.76820000       3.45630000
H       -1.40930000       0.48520000       2.46330000
H       -1.45630000       3.56600000       1.80090000
