14
Properties=species:S:1:pos:R:3 gdb_132305=T pbc="F F F"
N       -0.05130000       1.35160000       0.14650000
C        0.01540000      -0.01030000       0.04400000
N       -1.15560000      -0.65830000       0.00530000
C       -1.09120000      -1.99320000      -0.05000000
N       -2.27600000      -2.66260000      -0.13260000
H       -3.10710000      -2.15120000       0.11030000
H       -2.25320000      -3.65090000       0.05260000
N        0.02150000      -2.74990000      -0.06540000
C        1.14260000      -2.06360000      -0.02970000
F        2.25890000      -2.78310000      -0.04460000
C        1.24640000      -0.68730000       0.02290000
H        0.75780000       1.89290000      -0.10710000
H       -0.94800000       1.75970000      -0.06430000
H        2.20280000      -0.18550000       0.05970000
