18
Properties=species:S:1:pos:R:3 gdb_60040=T pbc="F F F"
C        0.05910000       1.49710000      -0.07240000
C        0.04460000      -0.02490000       0.04770000
O        0.69850000      -0.47680000       1.22520000
C       -1.38640000      -0.58680000      -0.02970000
N       -1.43110000      -2.04660000       0.01290000
C       -1.41690000      -2.67800000       1.26880000
O       -1.36300000      -3.85730000       1.47020000
C       -1.43400000      -2.74550000      -1.20130000
O       -1.42960000      -3.93500000      -1.34620000
H        1.08360000       1.86930000       0.00360000
H       -0.35890000       1.82710000      -1.02860000
H       -0.53440000       1.95890000       0.72730000
H        0.62390000      -0.46200000      -0.77510000
H        0.38810000       0.05510000       1.96680000
H       -1.98080000      -0.19130000       0.80230000
H       -1.87090000      -0.24940000      -0.95110000
H       -1.48060000      -1.92550000       2.07690000
H       -1.45400000      -2.03380000      -2.05260000
