20
Properties=species:S:1:pos:R:3 gdb_124605=T pbc="F F F"
C       -0.06800000       1.55670000       0.00640000
C       -0.01960000       0.02580000       0.04090000
C        0.73300000      -0.50660000       1.26460000
N       -1.37530000      -0.52690000      -0.00240000
N       -2.25350000      -0.25670000       0.99900000
C       -3.33310000      -0.91220000       0.61150000
N       -3.21280000      -1.58280000      -0.56370000
C       -1.96480000      -1.32060000      -0.92890000
C       -1.30680000      -1.82250000      -2.17100000
H        0.94700000       1.96450000       0.00450000
H       -0.58590000       1.91320000      -0.88850000
H       -0.59810000       1.93580000       0.88330000
H        0.47140000      -0.33740000      -0.86720000
H        0.22850000      -0.19320000       2.18180000
H        0.77770000      -1.59930000       1.25360000
H        1.75560000      -0.11830000       1.27470000
H       -4.23990000      -0.90640000       1.19820000
H       -0.98710000      -1.00450000      -2.82560000
H       -0.42630000      -2.43550000      -1.95040000
H       -2.02650000      -2.43630000      -2.71370000
