21
Properties=species:S:1:pos:R:3 gdb_54844=T pbc="F F F"
C       -0.06440000       1.52180000       0.00210000
C        0.03960000       0.00990000       0.13770000
O        0.10190000      -0.51500000       1.23190000
C        0.05760000      -0.73800000      -1.14990000
C        0.88410000      -2.00370000      -1.41020000
C        1.47220000      -2.78920000      -0.24370000
C        0.27390000      -3.35000000       0.57410000
C       -1.02670000      -2.95570000      -0.18210000
C       -0.60570000      -2.10290000      -1.37340000
H        0.77890000       1.91050000      -0.58050000
H       -0.97700000       1.79370000      -0.54080000
H       -0.07250000       1.98200000       0.99060000
H       -0.00710000      -0.08830000      -2.01820000
H        1.42680000      -2.00360000      -2.34960000
H        2.08460000      -3.59880000      -0.65490000
H        2.13010000      -2.17880000       0.38110000
H        0.34870000      -4.43730000       0.67020000
H        0.27050000      -2.92760000       1.57660000
H       -1.54570000      -3.84070000      -0.56560000
H       -1.72840000      -2.43590000       0.47610000
H       -1.18900000      -2.17770000      -2.28520000
