18
Properties=species:S:1:pos:R:3 gdb_65156=T pbc="F F F"
O        0.11020000       1.32150000       0.32280000
C        0.11250000      -0.05750000       0.07580000
C        1.00920000      -0.48260000      -1.05180000
C        1.37230000      -0.83130000       0.37750000
C       -1.22580000      -0.74280000       0.24400000
C       -2.01620000      -0.45570000       1.55940000
C       -3.04390000       0.26240000       0.64910000
O       -4.04970000       0.89670000       0.81200000
N       -2.34520000      -0.11520000      -0.47420000
H        0.11950000       1.46240000       1.27560000
H        0.67790000      -1.27860000      -1.70980000
H        1.57860000       0.30420000      -1.53180000
H        2.18570000      -0.27600000       0.83040000
H        1.28930000      -1.86420000       0.69860000
H       -1.11800000      -1.80920000       0.01470000
H       -2.40330000      -1.33510000       2.07620000
H       -1.52490000       0.20080000       2.27990000
H       -2.40650000       0.22520000      -1.42320000
