11
Properties=species:S:1:pos:R:3 gdb_23962=T pbc="F F F"
N        0.16220000      -1.16000000      -0.00540000
C        0.05310000      -0.00700000       0.00230000
C       -0.05420000       1.39850000       0.01140000
C       -1.14950000       2.25250000       0.03160000
N       -0.73670000       3.56000000       0.03280000
C        0.57500000       3.51190000       0.01390000
N        1.04000000       2.23450000       0.00040000
C       -2.51910000       1.87750000       0.04900000
N       -3.63030000       1.55670000       0.06300000
H        1.23540000       4.36570000       0.00920000
H        2.00270000       1.93480000      -0.01480000
