21
Properties=species:S:1:pos:R:3 gdb_40698=T pbc="F F F"
C       -0.55910000       1.28650000      -0.33200000
C        0.43800000       1.70240000       0.72890000
C        0.44600000       0.29500000       0.21050000
N        0.17790000      -0.80780000       1.10290000
C       -1.16020000      -1.04300000       1.62510000
C       -0.57200000      -1.97410000       0.61830000
C       -1.08640000      -2.08950000      -0.78900000
C       -2.28330000      -2.92560000      -1.06600000
N       -2.32860000      -1.46800000      -1.27170000
H       -1.59880000       1.21290000      -0.03630000
H       -0.42300000       1.63490000      -1.34980000
H        1.25490000       2.36350000       0.46150000
H        0.05380000       1.85220000       1.73270000
H        1.26170000       0.04310000      -0.46160000
H       -1.21590000      -1.32710000       2.67300000
H       -1.97070000      -0.39400000       1.29940000
H       -0.15170000      -2.90990000       0.98750000
H       -0.30070000      -2.08480000      -1.54320000
H       -2.33860000      -3.52320000      -1.97140000
H       -2.81040000      -3.34440000      -0.21200000
H       -2.82500000      -1.03830000      -0.49600000
