23
Properties=species:S:1:pos:R:3 gdb_108210=T pbc="F F F"
O       -0.08540000       1.42500000       0.01180000
C       -0.03230000       0.00180000      -0.00430000
C       -1.45060000      -0.52670000       0.01290000
C       -2.26060000      -0.15370000       1.28230000
C       -3.42300000      -1.19690000       1.29210000
C       -3.15060000      -2.03690000       0.02410000
C       -3.46340000      -1.16990000      -1.21600000
C       -2.30100000      -0.12690000      -1.22140000
C       -1.60780000      -2.06570000      -0.00110000
H        0.81580000       1.75980000       0.00120000
H        0.48910000      -0.36150000      -0.90560000
H        0.51780000      -0.38050000       0.87170000
H       -1.63430000      -0.25160000       2.17560000
H       -2.60980000       0.88050000       1.24860000
H       -3.38240000      -1.82240000       2.18940000
H       -4.41260000      -0.73030000       1.26990000
H       -3.64960000      -3.00830000       0.02180000
H       -3.45200000      -1.77610000      -2.12740000
H       -4.45170000      -0.70430000      -1.15190000
H       -2.64850000       0.90630000      -1.15430000
H       -1.70380000      -0.20540000      -2.13630000
H       -1.19780000      -2.53250000      -0.90340000
H       -1.16910000      -2.55160000       0.87740000
