22
Properties=species:S:1:pos:R:3 gdb_66163=T pbc="F F F"
C       -0.61110000       1.48110000       0.07080000
C       -0.02070000       0.07830000      -0.00860000
C       -1.09360000      -0.96600000      -0.36110000
N       -1.74210000      -0.74480000      -1.64470000
C       -3.02630000      -0.31420000      -1.76880000
O       -3.77920000      -0.07160000      -0.84930000
C        1.27500000      -0.08520000      -0.87160000
C        1.91900000      -0.91010000       0.27400000
C        0.80410000      -0.40520000       1.22880000
H        0.15480000       2.20790000       0.36030000
H       -1.02230000       1.79350000      -0.89450000
H       -1.42330000       1.52910000       0.80430000
H       -0.65250000      -1.97060000      -0.35540000
H       -1.88880000      -0.94680000       0.38880000
H       -1.21520000      -0.89900000      -2.48940000
H       -3.32110000      -0.21110000      -2.83270000
H        1.17470000      -0.57380000      -1.84670000
H        1.77750000       0.87360000      -1.02780000
H        1.86450000      -1.98770000       0.09830000
H        2.94890000      -0.66380000       0.54070000
H        1.13210000       0.43410000       1.84810000
H        0.32720000      -1.14450000       1.87940000
