18
Properties=species:S:1:pos:R:3 gdb_100382=T pbc="F F F"
C       -0.11810000       1.26270000       0.17340000
O       -0.00590000      -0.13050000      -0.08060000
C        0.70190000      -0.52450000      -1.24450000
C        2.18210000      -0.10440000      -1.21970000
C        0.56560000      -2.05810000      -1.27350000
C       -0.87870000      -2.52400000      -1.17790000
O       -1.22170000      -3.49040000      -0.55130000
C        0.05740000       0.05710000      -2.45490000
N       -0.43620000       0.52620000      -3.38900000
H        0.84920000       1.71490000       0.42420000
H       -0.55510000       1.79570000      -0.68060000
H       -0.78460000       1.35790000       1.03230000
H        2.63950000      -0.47620000      -0.29910000
H        2.71110000      -0.52830000      -2.07690000
H        2.29270000       0.98110000      -1.26060000
H        0.98940000      -2.44300000      -2.20950000
H        1.12640000      -2.48760000      -0.43990000
H       -1.60740000      -1.92070000      -1.76120000
