17
Properties=species:S:1:pos:R:3 gdb_109327=T pbc="F F F"
O       -0.02320000       1.46080000       0.05430000
C        0.00600000       0.04670000       0.11220000
C       -1.38750000      -0.47720000       0.03370000
C       -2.52550000       0.19170000      -0.10130000
C       -3.68380000      -0.75880000      -0.14730000
O       -3.11510000      -2.05630000       0.04370000
C       -1.69070000      -1.96600000       0.09120000
C       -1.06490000      -2.71620000      -1.00650000
C       -0.53320000      -3.32300000      -1.89760000
H        0.88430000       1.77720000       0.03660000
H        0.59620000      -0.38420000      -0.71360000
H        0.47610000      -0.30950000       1.04680000
H       -2.62010000       1.26610000      -0.17580000
H       -4.42150000      -0.57190000       0.64690000
H       -4.22140000      -0.71950000      -1.10790000
H       -1.34780000      -2.40590000       1.04250000
H       -0.07420000      -3.86530000      -2.68710000
