18
Properties=species:S:1:pos:R:3 gdb_90554=T pbc="F F F"
O        0.45200000       0.91530000      -0.87960000
C        0.08010000      -0.21840000      -0.14260000
C        0.29020000      -0.21700000       1.40820000
C       -1.21840000      -0.51550000       1.60770000
C       -1.44100000      -0.53420000       0.05250000
C       -2.36270000       0.69860000       0.21850000
N       -2.06140000       0.68190000       1.65310000
C       -2.45300000       1.51480000       2.64220000
O       -3.15750000       2.49090000       2.48180000
H        0.15720000       1.70260000      -0.40980000
H        0.59250000      -1.05570000      -0.62300000
H        0.95600000      -1.00950000       1.75920000
H        0.62530000       0.73310000       1.83350000
H       -1.50940000      -1.31960000       2.28620000
H       -1.84780000      -1.38540000      -0.48950000
H       -2.06110000       1.61170000      -0.30620000
H       -3.42000000       0.51360000       0.00330000
H       -2.05700000       1.19710000       3.62960000
