19
Properties=species:S:1:pos:R:3 gdb_41525=T pbc="F F F"
C       -0.05510000       1.53580000       0.07780000
C        1.44200000       1.94610000      -0.06680000
C        2.20140000       0.63120000      -0.06500000
C        3.51080000       0.36960000      -0.10900000
C        3.99120000      -1.05970000      -0.02480000
O        3.02960000      -1.94570000       0.52430000
C        1.75300000      -1.85400000      -0.09160000
C        1.22260000      -0.45280000      -0.00600000
C       -0.02580000       0.02440000       0.07250000
H       -0.49680000       1.92250000       1.00540000
H       -0.67330000       1.93340000      -0.73670000
H        1.61330000       2.49830000      -0.99680000
H        1.76610000       2.59970000       0.74850000
H        4.26230000       1.14990000      -0.19100000
H        4.31520000      -1.41720000      -1.02110000
H        4.86420000      -1.13170000       0.63390000
H        1.81900000      -2.16290000      -1.15060000
H        1.11010000      -2.57320000       0.42360000
H       -0.92790000      -0.57570000       0.12500000
