18
Properties=species:S:1:pos:R:3 gdb_53310=T pbc="F F F"
C        0.13070000       1.51150000       0.19470000
C        0.06350000       0.06130000       0.09330000
C        0.01170000      -1.14020000       0.01970000
C       -0.03620000      -2.57060000      -0.10330000
N       -0.58200000      -3.34820000       1.03710000
C       -1.32360000      -3.33050000      -0.22900000
C       -2.67200000      -2.64150000      -0.20750000
C       -3.70170000      -3.46200000       0.54070000
O       -4.78860000      -3.75680000       0.11310000
H        1.16850000       1.86170000       0.17570000
H       -0.39880000       1.99520000      -0.63360000
H       -0.32080000       1.86280000       1.12890000
H        0.81050000      -3.00840000      -0.62860000
H       -0.06100000      -4.21530000       1.13770000
H       -1.27660000      -4.22430000      -0.84940000
H       -2.56060000      -1.68270000       0.31470000
H       -3.03640000      -2.44590000      -1.22000000
H       -3.37030000      -3.78470000       1.55260000
