12
Properties=species:S:1:pos:R:3 gdb_130807=T pbc="F F F"
O       -0.09580000      -0.03350000      -0.00090000
C       -0.01420000       1.17410000       0.00780000
C        1.22390000       1.90470000      -0.00010000
C        2.25580000       2.53820000      -0.00650000
C        3.45320000       3.27170000      -0.01430000
C        4.74260000       2.80570000      -0.03250000
O        5.60570000       3.81500000      -0.03440000
N        4.90270000       5.02600000      -0.01700000
C        3.64180000       4.69320000      -0.00530000
H       -0.91680000       1.81800000       0.02280000
H        5.15750000       1.80990000      -0.04490000
H        2.88540000       5.46430000       0.00920000
