15
Properties=species:S:1:pos:R:3 gdb_34763=T pbc="F F F"
C        0.00110000      -1.21780000       0.09580000
C        0.01380000      -0.01490000       0.09260000
C        0.02260000       1.41950000       0.07790000
C        0.53070000       2.24650000       1.20360000
C        1.66320000       1.52350000       1.95030000
C        2.38420000       1.48790000       0.56110000
N        1.26350000       2.23040000      -0.11190000
C        2.33470000       2.31250000       2.96750000
N        2.87060000       2.94130000       3.77600000
H       -0.02080000      -2.28000000       0.09340000
H       -0.79840000       1.86980000      -0.47430000
H        0.00140000       3.11900000       1.57120000
H        1.38230000       0.55210000       2.36710000
H        3.28710000       2.09690000       0.53400000
H        2.58070000       0.49610000       0.14960000
