17
Properties=species:S:1:pos:R:3 gdb_29969=T pbc="F F F"
C       -0.23120000       1.39510000       0.12110000
N        0.01240000      -0.02760000       0.00490000
C        0.01360000      -0.74150000      -1.16300000
C        0.20640000      -2.07410000      -0.86900000
C        0.31240000      -2.15370000       0.54520000
O        0.57520000      -3.26610000       1.31040000
C       -0.15900000      -4.37790000       1.06610000
N        0.13920000      -5.45920000       1.64200000
C        0.18650000      -0.88610000       1.06440000
H        0.44970000       1.83450000       0.85510000
H       -0.05020000       1.87010000      -0.84510000
H       -1.26190000       1.60600000       0.42820000
H       -0.11510000      -0.24260000      -2.11040000
H        0.29940000      -2.88230000      -1.57670000
H       -0.98220000      -4.20040000       0.36370000
H       -0.51980000      -6.18590000       1.37040000
H        0.21760000      -0.53750000       2.08290000
