15
Properties=species:S:1:pos:R:3 gdb_66672=T pbc="F F F"
O        0.27510000       1.34230000       0.20770000
C        0.14770000      -0.01200000       0.08420000
C        0.90130000      -1.07590000       0.84630000
C       -0.33660000      -2.01350000       0.76630000
C       -1.10980000      -0.95440000       0.01080000
C       -0.26650000      -1.97920000      -0.76940000
C       -0.67270000      -2.93180000      -1.73010000
C       -1.00490000      -3.74190000      -2.55780000
C        0.97400000      -1.03220000      -0.68700000
H        0.12300000       1.74630000      -0.65500000
H        1.70120000      -0.97800000       1.56630000
H       -0.69700000      -2.81040000       1.40300000
H       -2.17650000      -0.78670000      -0.05650000
H       -1.30080000      -4.45770000      -3.28350000
H        1.83550000      -0.91190000      -1.32920000
