19
Properties=species:S:1:pos:R:3 gdb_128465=T pbc="F F F"
C       -0.00260000       1.40250000      -0.07660000
O       -0.04170000       0.02030000       0.18670000
C       -1.32500000      -0.58170000       0.04180000
C       -1.72980000      -0.71480000      -1.43500000
C       -1.25740000      -1.91610000       0.72390000
C       -2.18730000      -2.49360000       1.56340000
N       -1.69730000      -3.71140000       1.90330000
N       -0.49800000      -3.97210000       1.34990000
C       -0.23000000      -2.88630000       0.63170000
H        0.99910000       1.74960000       0.18930000
H       -0.18270000       1.64420000      -1.13430000
H       -0.73880000       1.95280000       0.53140000
H       -2.07540000       0.04330000       0.55540000
H       -2.70290000      -1.20830000      -1.51400000
H       -1.80620000       0.26160000      -1.92270000
H       -0.99310000      -1.31850000      -1.97290000
H       -3.13550000      -2.13740000       1.93520000
H       -2.11480000      -4.39730000       2.50840000
H        0.69650000      -2.81790000       0.08210000
