20
Properties=species:S:1:pos:R:3 gdb_121049=T pbc="F F F"
C       -0.52740000       1.49950000       0.19470000
C       -0.17840000       0.02080000       0.21180000
O       -1.34030000      -0.71360000      -0.12680000
C       -1.15550000      -2.11340000      -0.20770000
C       -1.19030000      -2.78750000       1.19360000
N       -2.58900000      -3.12500000       1.35530000
C       -3.32940000      -3.12900000       0.20320000
O       -4.49610000      -3.43610000       0.10580000
C       -2.37910000      -2.69970000      -0.91890000
H        0.35150000       2.10110000       0.44430000
H       -0.88460000       1.79670000      -0.79510000
H       -1.31530000       1.71580000       0.92150000
H        0.62590000      -0.19820000      -0.51070000
H        0.19660000      -0.26930000       1.20680000
H       -0.21160000      -2.33590000      -0.72360000
H       -0.54350000      -3.67660000       1.21860000
H       -0.84630000      -2.09920000       1.97190000
H       -2.99150000      -3.44740000       2.22040000
H       -2.84970000      -1.97230000      -1.58070000
H       -2.11980000      -3.58490000      -1.50880000
