18
Properties=species:S:1:pos:R:3 gdb_105829=T pbc="F F F"
C        0.18110000       1.70220000       0.39220000
C        0.04420000       0.19750000       0.44920000
C        1.03700000      -0.78660000      -0.10610000
N        2.42790000      -0.36170000       0.08700000
C        2.25300000      -0.21620000       1.47420000
O        2.98540000       0.17540000       2.33930000
C        0.81600000      -0.73180000       1.39850000
C        0.18270000      -1.71280000       2.35400000
O       -1.14470000      -2.07190000       2.00050000
H        1.22270000       2.02350000       0.47580000
H       -0.21730000       2.08860000      -0.55220000
H       -0.37450000       2.17620000       1.20770000
H       -0.97690000      -0.16410000       0.33160000
H        0.79920000      -1.59340000      -0.78730000
H        2.90330000       0.32730000      -0.48550000
H        0.75640000      -2.64620000       2.35780000
H        0.23290000      -1.30310000       3.37340000
H       -1.72560000      -1.35190000       2.26460000
