14
Properties=species:S:1:pos:R:3 gdb_127042=T pbc="F F F"
C        0.05640000       1.52150000       0.14450000
C        0.00500000       0.01660000      -0.00500000
O        0.68130000      -0.55650000       1.14960000
C        0.73130000      -1.86150000       1.18550000
N        0.25980000      -2.70300000       0.33160000
O        0.61630000      -3.96860000       0.90270000
C        1.27820000      -3.77060000       2.06310000
O        1.71830000      -4.58860000       2.79690000
O        1.35660000      -2.39290000       2.25330000
H        1.08990000       1.87590000       0.17480000
H       -0.44440000       1.98660000      -0.70940000
H       -0.45010000       1.84080000       1.05890000
H       -1.01950000      -0.36750000      -0.02400000
H        0.51740000      -0.33230000      -0.90680000
