21
Properties=species:S:1:pos:R:3 gdb_90196=T pbc="F F F"
C       -0.26590000       1.48740000       0.01460000
C        0.01730000      -0.01080000       0.01120000
C        1.19830000      -0.51630000      -0.92620000
C        2.07230000      -0.73940000       0.33970000
C        2.79460000       0.36150000       1.14560000
C        1.98610000      -0.41520000       2.19800000
C        2.26270000      -1.81050000       1.47380000
C        0.77590000      -2.18950000       1.46910000
C        0.78180000      -0.66650000       1.21370000
H        0.63850000       2.08570000       0.15050000
H       -0.72030000       1.79130000      -0.93540000
H       -0.96280000       1.74880000       0.81790000
H       -0.92310000      -0.54160000      -0.17180000
H        0.94660000      -1.42860000      -1.47280000
H        1.59590000       0.21280000      -1.63860000
H        3.88600000       0.28620000       1.20820000
H        2.50270000       1.39980000       0.96870000
H        1.95720000      -0.27030000       3.28420000
H        3.13440000      -2.44740000       1.66410000
H        0.44140000      -2.82780000       0.64380000
H        0.34310000      -2.53630000       2.41340000
