13
Properties=species:S:1:pos:R:3 gdb_131602=T pbc="F F F"
O        0.02810000       1.36370000       0.00940000
C       -0.03180000      -0.03580000       0.00250000
C       -1.49990000      -0.42530000       0.01310000
O       -2.43410000       0.31050000       0.02460000
N       -1.70060000      -1.86210000       0.00660000
N       -2.90100000      -2.44530000       0.01330000
C       -2.56850000      -3.71980000       0.00400000
N       -1.21750000      -3.91920000      -0.00990000
N       -0.68220000      -2.73890000      -0.00730000
H        0.95510000       1.61930000      -0.00040000
H        0.43420000      -0.49100000      -0.88480000
H        0.44940000      -0.50030000       0.87670000
H       -3.28850000      -4.52200000       0.00560000
