21
Properties=species:S:1:pos:R:3 gdb_75486=T pbc="F F F"
C        0.10230000       1.50550000       0.08870000
C        0.00550000       0.00870000      -0.01910000
C       -0.01940000      -0.65360000      -1.17960000
C       -0.10890000      -2.15570000      -1.25250000
C       -0.91870000      -2.75200000      -0.08640000
C       -0.53250000      -2.16200000       1.25770000
C       -1.21700000      -2.74250000       2.47300000
O        0.85940000      -1.86740000       1.42240000
C       -0.06300000      -0.76210000       1.25640000
H        1.00770000       1.80750000       0.63050000
H        0.12320000       1.97610000      -0.89770000
H       -0.74740000       1.92310000       0.64440000
H        0.05300000      -0.10380000      -2.11490000
H       -0.55700000      -2.46390000      -2.20320000
H        0.90250000      -2.58050000      -1.23700000
H       -1.98900000      -2.55950000      -0.23880000
H       -0.79570000      -3.84130000      -0.06350000
H       -0.98280000      -3.80820000       2.57340000
H       -0.88630000      -2.23440000       3.38230000
H       -2.30510000      -2.64530000       2.39280000
H       -0.19230000      -0.17510000       2.16600000
