19
Properties=species:S:1:pos:R:3 gdb_32937=T pbc="F F F"
C        0.06790000       1.51120000       0.11370000
C        0.00730000      -0.00090000       0.02010000
O        0.71490000      -0.53390000       1.15200000
C        0.75230000      -1.87040000       1.21820000
N        0.23240000      -2.73820000       0.39330000
C        0.56900000      -3.97180000       0.93640000
C        1.29080000      -3.83510000       2.08650000
C        1.88250000      -4.81910000       3.03490000
N        1.40460000      -2.45540000       2.26100000
H        1.10360000       1.86250000       0.09630000
H       -0.46150000       1.95580000      -0.73420000
H       -0.40060000       1.86450000       1.03670000
H       -1.02310000      -0.37230000       0.03700000
H        0.47250000      -0.37420000      -0.89880000
H        0.26610000      -4.89100000       0.45800000
H        2.97320000      -4.72220000       3.11010000
H        1.47530000      -4.71790000       4.04910000
H        1.66480000      -5.83360000       2.69220000
H        1.87340000      -1.96980000       3.00640000
