20
Properties=species:S:1:pos:R:3 gdb_40176=T pbc="F F F"
C        0.00750000       1.49290000      -0.03740000
C        1.31480000       0.72100000      -0.07630000
C       -0.01190000       0.00250000       0.02950000
C       -0.41050000      -0.71980000       1.30410000
C       -0.18020000      -2.22180000       1.17460000
N       -1.23300000      -2.97060000       0.45940000
C        0.08330000      -2.80300000      -0.16950000
C        0.14520000      -1.87840000      -1.36770000
O       -0.48260000      -0.62860000      -1.13270000
H       -0.24160000       2.05100000       0.85910000
H       -0.33220000       1.94180000      -0.96360000
H        1.83060000       0.67630000      -1.02910000
H        1.96560000       0.75560000       0.79110000
H        0.16280000      -0.32240000       2.14760000
H       -1.47180000      -0.54250000       1.51190000
H        0.28000000      -2.71070000       2.02970000
H       -1.31700000      -3.90780000       0.84410000
H        0.73990000      -3.66900000      -0.23560000
H        1.20280000      -1.73020000      -1.64200000
H       -0.37350000      -2.31860000      -2.22540000
