18
Properties=species:S:1:pos:R:3 gdb_16237=T pbc="F F F"
O        0.10890000       1.35880000      -0.18090000
C        0.03530000      -0.04950000       0.01190000
C        0.59640000      -0.48020000       1.39700000
C       -0.63900000      -0.79500000       2.20790000
C       -1.72890000      -0.85530000       1.44020000
C       -1.41620000      -0.56750000       0.01660000
C       -2.43170000      -0.01080000      -0.95510000
C       -1.95930000      -1.42890000      -1.10870000
H       -0.48030000       1.76720000       0.46350000
H        0.61820000      -0.46770000      -0.81260000
H        1.24620000      -1.36200000       1.31340000
H        1.21260000       0.32340000       1.81500000
H       -0.61370000      -0.97870000       3.27600000
H       -2.73200000      -1.09210000       1.77900000
H       -3.44100000       0.15890000      -0.59410000
H       -2.07340000       0.73200000      -1.65910000
H       -1.28860000      -1.65970000      -1.93020000
H       -2.64010000      -2.23270000      -0.84850000
