16
Properties=species:S:1:pos:R:3 gdb_27423=T pbc="F F F"
C       -0.36510000       1.47300000       0.09300000
C       -0.02970000       0.00720000      -0.06290000
N       -0.34520000      -0.56150000      -1.17360000
C       -0.06690000      -1.87650000      -1.53450000
O        0.43800000      -2.14670000      -2.60300000
C       -0.51360000      -2.94320000      -0.60760000
C       -0.18020000      -2.97140000       0.69940000
C        0.49990000      -1.92920000       1.42730000
C        0.60600000      -0.62200000       1.08670000
H       -0.99160000       1.64130000       0.97580000
H        0.55230000       2.05660000       0.23610000
H       -0.88050000       1.83330000      -0.79700000
H       -0.99960000      -3.79720000      -1.07020000
H       -0.39910000      -3.87450000       1.26390000
H        0.91780000      -2.22440000       2.38680000
H        1.08760000       0.04980000       1.79240000
