18
Properties=species:S:1:pos:R:3 gdb_112638=T pbc="F F F"
C        0.06200000       1.39590000      -0.02480000
O       -0.12180000      -0.00610000       0.08790000
C        0.64470000      -0.61040000       1.10770000
C        0.13330000      -2.03850000       1.34850000
C        1.36750000      -2.90370000       1.24080000
N        1.27920000      -4.22580000       1.52410000
C        2.47070000      -2.19500000       0.88250000
C        2.14400000      -0.79080000       0.72670000
O        2.86550000       0.12030000       0.36520000
H        1.09390000       1.65100000      -0.28150000
H       -0.61420000       1.73610000      -0.81320000
H       -0.20480000       1.90440000       0.91580000
H        0.59280000      -0.00540000       2.02790000
H       -0.35980000      -2.16690000       2.31830000
H       -0.59490000      -2.29760000       0.57150000
H        0.37460000      -4.66350000       1.56930000
H        2.05620000      -4.83280000       1.32120000
H        3.46170000      -2.59670000       0.71400000
