19
Properties=species:S:1:pos:R:3 gdb_13184=T pbc="F F F"
C        0.63620000      -0.39450000       1.31790000
C       -0.06890000       0.00010000       0.01040000
C       -0.08240000       1.52180000      -0.07000000
O       -1.02360000       2.21720000       0.20810000
N        0.64820000      -0.51960000      -1.13570000
C        0.01660000      -0.42450000      -2.47210000
C        0.63050000      -1.79950000      -2.82150000
C        0.81140000      -1.98240000      -1.29530000
H        0.68930000      -1.48330000       1.40890000
H        1.65750000      -0.00130000       1.33980000
H        0.08680000      -0.00610000       2.17920000
H       -1.12090000      -0.33970000       0.04630000
H        0.89450000       1.95070000      -0.39280000
H       -1.08430000      -0.46050000      -2.42870000
H        0.31630000       0.44580000      -3.06480000
H       -0.00930000      -2.51580000      -3.33670000
H        1.58190000      -1.71370000      -3.34910000
H        1.76070000      -2.38650000      -0.93020000
H       -0.01530000      -2.56120000      -0.85180000
