23
Properties=species:S:1:pos:R:3 gdb_57908=T pbc="F F F"
C       -0.30900000       1.39460000       0.03390000
C        0.02360000      -0.11140000      -0.03800000
C        0.62030000      -0.48900000      -1.39600000
C        0.97800000      -0.44850000       1.11090000
O        2.18010000      -0.46760000       0.95550000
C        0.34440000      -0.78220000       2.44530000
C        0.05950000      -2.31100000       2.67970000
C        0.58250000      -2.14180000       4.13060000
C        1.24480000      -0.80500000       3.70510000
H        0.59500000       1.99190000      -0.12290000
H       -1.03210000       1.66050000      -0.74310000
H       -0.73750000       1.67660000       1.00090000
H       -0.90790000      -0.66920000       0.12810000
H        1.58100000       0.01140000      -1.54040000
H        0.79630000      -1.56650000      -1.46720000
H       -0.05330000      -0.19820000      -2.20810000
H       -0.57320000      -0.20420000       2.59080000
H       -0.96760000      -2.65460000       2.53910000
H        0.72720000      -2.93180000       2.07580000
H       -0.23640000      -1.98740000       4.83900000
H        1.23370000      -2.92730000       4.52050000
H        2.28870000      -0.93020000       3.40860000
H        1.16630000       0.04260000       4.38940000
