12
Properties=species:S:1:pos:R:3 gdb_21387=T pbc="F F F"
N        0.00630000       1.32810000       0.00880000
N        1.27620000       1.85790000       0.00090000
C        2.10670000       0.82750000      -0.01360000
C        1.40280000      -0.40920000      -0.01340000
C        0.06360000      -0.02190000       0.00190000
N       -0.70550000      -1.13280000       0.00300000
N        0.08560000      -2.25870000      -0.01140000
C        1.33790000      -1.83060000      -0.02090000
H       -0.78000000       1.95170000       0.02290000
H        3.17030000       1.01330000      -0.02300000
H       -1.70330000      -1.24050000       0.01220000
H        2.13820000      -2.55540000      -0.03300000
