20
Properties=species:S:1:pos:R:3 gdb_80010=T pbc="F F F"
C       -0.03890000       1.45270000      -0.01310000
N       -0.03400000      -0.00040000       0.00900000
C       -1.26100000      -0.80460000       0.11070000
C       -0.65710000      -2.18600000      -0.18270000
C        0.56500000      -2.17380000       0.35510000
C        0.73330000      -0.78450000       0.98830000
C       -0.18820000      -0.85360000       2.25150000
C       -1.15250000       0.27300000       2.54460000
C       -1.56870000      -0.86750000       1.64400000
H        0.56700000       1.88090000       0.79450000
H        0.37430000       1.82490000      -0.96140000
H       -1.05070000       1.86470000       0.08320000
H       -2.07010000      -0.46710000      -0.53770000
H       -1.18000000      -3.00550000      -0.65630000
H        1.28110000      -2.98080000       0.42670000
H        1.75210000      -0.42860000       1.14420000
H        0.08510000      -1.54010000       3.04550000
H       -1.59010000       0.26850000       3.53910000
H       -0.99190000       1.26750000       2.15700000
H       -2.32720000      -1.56430000       1.98410000
