20
Properties=species:S:1:pos:R:3 gdb_6737=T pbc="F F F"
C       -0.10290000       1.19730000      -0.19600000
C        1.23330000       0.47860000       0.06600000
C        1.28360000      -0.18210000       1.36680000
C        1.30190000      -0.70700000       2.45160000
C        1.32060000      -1.38120000       3.74390000
C        1.31860000      -2.92610000       3.64530000
C        2.56470000      -3.47600000       2.95660000
O        1.13600000      -3.49220000       4.93710000
H       -0.28480000       1.96610000       0.55980000
H       -0.09340000       1.67580000      -1.18000000
H       -0.93660000       0.49050000      -0.16410000
H        1.41110000      -0.26070000      -0.72580000
H        2.05720000       1.20020000      -0.00890000
H        2.20530000      -1.06880000       4.31860000
H        0.44740000      -1.08840000       4.33870000
H        0.42920000      -3.22640000       3.08040000
H        2.51740000      -4.56670000       2.90030000
H        2.66340000      -3.07080000       1.94610000
H        3.46790000      -3.19950000       3.51690000
H        1.95400000      -3.36560000       5.43080000
