25
Properties=species:S:1:pos:R:3 gdb_104659=T pbc="F F F"
C       -0.69120000       1.36680000      -0.27700000
C       -0.16280000      -0.05440000      -0.03250000
C        0.54000000      -0.67230000      -1.23470000
C        1.73620000       0.09290000      -1.79130000
C        2.91690000       0.20480000      -0.81850000
C        0.61760000      -2.19390000      -1.35140000
C        0.08300000      -3.15400000      -0.30870000
C       -0.30910000      -1.41870000      -2.25100000
O       -1.68100000      -1.60240000      -2.03180000
H        0.11460000       2.07760000      -0.48340000
H       -1.37910000       1.39660000      -1.13020000
H       -1.23590000       1.73290000       0.59880000
H        0.52070000      -0.04070000       0.82570000
H       -1.00160000      -0.69060000       0.25820000
H        2.07700000      -0.40990000      -2.70500000
H        1.42530000       1.09760000      -2.10600000
H        3.24970000      -0.78540000      -0.48930000
H        3.76770000       0.70510000      -1.29170000
H        2.65440000       0.77930000       0.07560000
H        1.52180000      -2.55100000      -1.84020000
H       -0.92950000      -2.89610000       0.00450000
H        0.04520000      -4.16980000      -0.71700000
H        0.72560000      -3.17790000       0.57820000
H       -0.03620000      -1.32300000      -3.30320000
H       -2.12860000      -0.77410000      -2.23200000
