23
Properties=species:S:1:pos:R:3 gdb_92530=T pbc="F F F"
C       -0.17460000       1.56950000       0.08550000
C        0.06500000       0.06120000       0.05630000
C        0.75870000      -0.49900000      -1.20410000
C        2.11510000       0.12970000      -1.65360000
C        2.86240000      -1.16890000      -1.22870000
C        1.51970000      -1.79550000      -0.74700000
C        1.30160000      -1.90350000       0.77430000
C        0.88800000      -0.49440000       1.24790000
O        1.99410000       0.32690000       1.61870000
H        0.76620000       2.12440000       0.11430000
H       -0.73980000       1.89490000      -0.79420000
H       -0.74510000       1.85640000       0.97500000
H       -0.91200000      -0.44080000       0.11380000
H        0.04990000      -0.61930000      -2.02660000
H        2.17350000       0.34470000      -2.72300000
H        2.40690000       1.04270000      -1.12730000
H        3.32760000      -1.70100000      -2.06190000
H        3.62830000      -1.05750000      -0.45320000
H        1.25890000      -2.72240000      -1.26170000
H        0.48270000      -2.60250000       0.98030000
H        2.18060000      -2.26460000       1.31790000
H        0.27730000      -0.53760000       2.15510000
H        2.64530000       0.31050000       0.91210000
