19
Properties=species:S:1:pos:R:3 gdb_110046=T pbc="F F F"
O       -0.11960000       1.50780000      -0.21650000
C        0.03750000       0.10400000      -0.18980000
C       -1.30690000      -0.59710000       0.05200000
C       -1.34270000      -2.12890000       0.00310000
O       -0.19450000      -2.58900000       0.71110000
C       -2.64400000      -2.48350000       0.75810000
C       -2.67800000      -1.49000000       1.93210000
C       -1.90620000      -0.27140000       1.42290000
O       -1.77080000       0.77680000       2.01110000
H       -0.52520000       1.74350000       0.62970000
H        0.44260000      -0.19300000      -1.16310000
H        0.75610000      -0.21690000       0.57600000
H       -2.02200000      -0.21440000      -0.69140000
H       -1.34230000      -2.51130000      -1.02630000
H       -0.21440000      -3.55100000       0.72580000
H       -3.50320000      -2.33290000       0.09480000
H       -2.65670000      -3.53100000       1.07400000
H       -3.67780000      -1.20780000       2.27040000
H       -2.13820000      -1.87650000       2.80320000
