16
Properties=species:S:1:pos:R:3 gdb_98060=T pbc="F F F"
C        0.09080000       1.31920000      -0.18850000
N        0.25300000      -0.11650000      -0.15920000
C        0.79370000      -0.78930000      -1.21270000
N        1.27330000      -0.18780000      -2.23950000
C        0.73980000      -2.28900000      -1.00620000
O        0.18230000      -2.76780000      -0.03890000
C        1.38770000      -3.25050000      -2.04010000
N        1.21780000      -4.53860000      -1.67510000
O        1.97270000      -2.88260000      -3.04280000
H        1.04980000       1.80120000      -0.40020000
H       -0.61320000       1.63850000      -0.96820000
H       -0.27420000       1.65590000       0.78390000
H       -0.22540000      -0.67000000       0.53090000
H        1.66460000      -0.86990000      -2.88630000
H        0.72290000      -4.75070000      -0.82460000
H        1.59300000      -5.26930000      -2.25570000
