23
Properties=species:S:1:pos:R:3 gdb_95472=T pbc="F F F"
C       -0.19580000       1.58750000      -0.12250000
C       -0.02700000       0.06530000      -0.03830000
C        0.77090000      -0.50540000      -1.23870000
C        2.23460000      -0.01250000      -1.31690000
C        2.91040000       0.07130000       0.03280000
C        2.21620000      -0.17440000       1.13530000
C        2.32390000       0.08160000       2.62440000
C        0.77390000       0.31850000       2.60130000
C        0.72340000      -0.41050000       1.21630000
H        0.76130000       2.11000000      -0.02630000
H       -0.63770000       1.87310000      -1.08330000
H       -0.85710000       1.95780000       0.66700000
H       -1.02870000      -0.38280000      -0.06130000
H        0.77110000      -1.59960000      -1.15610000
H        0.25820000      -0.26580000      -2.17740000
H        2.79880000      -0.66890000      -1.99290000
H        2.27290000       0.98100000      -1.78800000
H        3.94600000       0.40310000       0.06760000
H        2.58590000      -0.81700000       3.19490000
H        2.96300000       0.90330000       2.95870000
H        0.18790000      -0.11510000       3.41490000
H        0.53880000       1.38180000       2.51880000
H        0.50320000      -1.47370000       1.38480000
