19
Properties=species:S:1:pos:R:3 gdb_83854=T pbc="F F F"
O        0.00550000       1.39410000       0.09470000
C       -0.00370000       0.00320000      -0.00600000
C       -1.32920000      -0.67510000       0.04510000
C       -2.60800000       0.16160000       0.11830000
C       -3.19810000       0.48270000      -1.26210000
C       -2.13250000       1.07820000      -2.19880000
C       -1.00430000       0.08820000      -2.44200000
O       -0.52930000      -0.09620000      -3.54330000
C       -0.52760000      -0.69670000      -1.26360000
H        0.75920000       1.72900000      -0.40300000
H        0.83750000      -0.48990000       0.47950000
H       -1.35170000      -1.61650000       0.58420000
H       -3.34630000      -0.37870000       0.71800000
H       -2.39560000       1.09770000       0.64530000
H       -3.60420000      -0.43170000      -1.71310000
H       -4.03620000       1.18020000      -1.15820000
H       -2.54230000       1.35980000      -3.17190000
H       -1.70570000       1.97500000      -1.73260000
H       -0.00530000      -1.60480000      -1.54430000
