17
Properties=species:S:1:pos:R:3 gdb_36628=T pbc="F F F"
C        0.10770000      -0.45110000       1.06840000
C        0.08360000       0.38120000       0.20200000
C        0.09140000       1.37580000      -0.87240000
N        1.34160000       2.12150000      -0.97380000
C        1.47300000       3.29660000      -0.28860000
N        0.53870000       4.00340000       0.21440000
C        1.18350000       5.20520000       0.74850000
C        2.70430000       4.97120000       0.52790000
O        2.76170000       3.73140000      -0.21040000
H        0.11560000      -1.17670000       1.84380000
H       -0.10550000       0.88240000      -1.83120000
H       -0.69960000       2.11340000      -0.71180000
H        2.18780000       1.57390000      -1.02180000
H        0.82720000       6.09970000       0.22250000
H        0.93950000       5.33780000       1.80830000
H        3.18950000       5.74760000      -0.06920000
H        3.26220000       4.84050000       1.46020000
