15
Properties=species:S:1:pos:R:3 gdb_42156=T pbc="F F F"
N        0.01750000       1.21130000      -0.01880000
C        0.10480000      -0.02130000       0.29850000
C       -1.18230000      -0.82450000       0.39330000
O       -1.17620000      -2.01690000       0.61280000
C       -2.41150000      -0.08880000       0.18930000
C       -3.47930000       0.44550000       0.04130000
N        1.24260000      -0.72250000       0.66360000
C        1.72980000      -1.91370000      -0.00420000
C        2.50240000      -0.63060000      -0.04910000
H        0.94260000       1.64740000      -0.05470000
H       -4.41390000       0.93350000      -0.09310000
H        2.04360000      -2.72170000       0.64900000
H        1.22620000      -2.22760000      -0.91350000
H        2.50880000      -0.07940000      -0.98780000
H        3.38670000      -0.50210000       0.56770000
