17
Properties=species:S:1:pos:R:3 gdb_85146=T pbc="F F F"
O        0.35160000       1.15150000      -0.52650000
C        0.16370000      -0.07710000       0.12740000
C       -0.07210000      -0.08340000       1.67130000
C       -1.25270000      -1.03840000       1.41280000
O       -1.86810000      -1.81500000       2.08220000
C       -1.24770000      -0.68440000      -0.08930000
C       -2.39170000       0.20740000      -0.63550000
C       -2.60020000      -0.95210000      -1.62980000
O       -1.46870000      -1.67340000      -1.08580000
H        1.25560000       1.44510000      -0.37910000
H        0.92130000      -0.81920000      -0.15900000
H        0.72370000      -0.45300000       2.32050000
H       -0.41460000       0.89310000       2.03040000
H       -3.21320000       0.39880000       0.05550000
H       -2.03730000       1.14060000      -1.07140000
H       -3.53150000      -1.51500000      -1.50590000
H       -2.45610000      -0.71360000      -2.68890000
