16
Properties=species:S:1:pos:R:3 gdb_47473=T pbc="F F F"
O       -0.05440000      -0.08040000      -0.17780000
C       -0.03380000       1.12270000      -0.04050000
N       -1.08720000       1.95450000       0.28210000
C       -0.72980000       3.35570000       0.11220000
C        0.80570000       3.29940000       0.25700000
N        1.09170000       1.94070000      -0.18320000
C        2.40210000       1.34580000      -0.09960000
C        3.01380000       1.46710000       1.23810000
N        3.47660000       1.60250000       2.28810000
H       -2.01610000       1.61940000       0.08340000
H       -1.01470000       3.73760000      -0.87790000
H       -1.18970000       3.98940000       0.87420000
H        1.30940000       4.04310000      -0.36710000
H        1.11500000       3.45400000       1.30030000
H        2.28120000       0.28640000      -0.34780000
H        3.08410000       1.79520000      -0.83090000
