16
Properties=species:S:1:pos:R:3 gdb_15686=T pbc="F F F"
C        0.09210000       1.53380000       0.06820000
C        0.10240000       0.00580000       0.00030000
C        0.59670000      -0.51480000      -1.35450000
O        1.94470000      -0.15560000      -1.64350000
C        2.74610000      -1.29170000      -1.42680000
O        1.90270000      -2.43660000      -1.50190000
C        0.60450000      -2.03910000      -1.41040000
O       -0.31940000      -2.79440000      -1.36970000
H        1.09210000       1.93600000      -0.11650000
H       -0.58450000       1.95710000      -0.68210000
H       -0.23970000       1.87860000       1.05150000
H        0.73790000      -0.40510000       0.79480000
H       -0.90230000      -0.40190000       0.15900000
H       -0.03740000      -0.12510000      -2.15890000
H        3.50570000      -1.35520000      -2.21150000
H        3.22340000      -1.27540000      -0.43570000
