17
Properties=species:S:1:pos:R:3 gdb_26850=T pbc="F F F"
C        0.05530000       1.52900000      -0.03690000
C       -0.03050000       0.03090000      -0.01560000
C       -1.21130000      -0.67240000       0.01430000
C       -2.56160000      -0.00730000       0.02890000
C       -1.07290000      -2.08800000       0.03090000
N        0.03960000      -2.77240000       0.02080000
C        1.24010000      -2.08770000      -0.00920000
O        2.34350000      -2.58900000      -0.02150000
N        1.12810000      -0.67150000      -0.02630000
H        1.09130000       1.87530000      -0.06360000
H       -0.46480000       1.93280000      -0.91180000
H       -0.42710000       1.95560000       0.84870000
H       -2.72950000       0.61500000      -0.85840000
H       -3.35460000      -0.75960000       0.05300000
H       -2.69870000       0.63890000       0.90440000
H       -1.99090000      -2.68030000       0.05470000
H        2.01680000      -0.18950000      -0.04820000
