20
Properties=species:S:1:pos:R:3 gdb_75947=T pbc="F F F"
C       -0.06350000       1.45760000       0.01620000
N       -0.01410000      -0.00180000       0.01310000
C        0.02360000      -0.64100000      -1.22000000
O        0.01890000      -0.02790000      -2.27100000
C        0.01900000      -2.16100000      -1.16570000
C        0.84020000      -2.71600000       0.00120000
C        0.44720000      -1.99960000       1.26170000
C        0.04580000      -0.72290000       1.23480000
C       -0.36790000       0.01930000       2.47570000
H        0.82350000       1.88310000       0.49740000
H       -0.09340000       1.77790000      -1.02350000
H       -0.95400000       1.82700000       0.53290000
H       -1.02840000      -2.47230000      -1.05160000
H        0.36270000      -2.51740000      -2.13810000
H        0.67660000      -3.79420000       0.09530000
H        1.91530000      -2.58760000      -0.19880000
H        0.48000000      -2.52010000       2.21120000
H       -0.29680000      -0.64400000       3.33930000
H        0.26400000       0.89280000       2.66900000
H       -1.40120000       0.37890000       2.40630000
