18
Properties=species:S:1:pos:R:3 gdb_50784=T pbc="F F F"
O       -0.21080000       0.31460000       0.02510000
C        0.26480000       1.04550000      -0.79940000
C        1.48710000       1.93150000      -0.54230000
C        1.38380000       3.22570000      -1.20090000
C        1.23310000       4.29030000      -1.74660000
C        1.09180000       5.58520000      -2.42260000
N        1.97890000       5.85490000      -3.56040000
C        3.34520000       5.34710000      -3.51840000
C        2.33980000       4.75220000      -4.44360000
H       -0.14560000       1.12240000      -1.82970000
H        1.62320000       2.02220000       0.54030000
H        2.35970000       1.38110000      -0.92690000
H        0.06130000       5.69100000      -2.78360000
H        1.24780000       6.38900000      -1.69260000
H        4.10510000       6.03000000      -3.88730000
H        3.64120000       4.73890000      -2.66650000
H        1.98050000       3.75620000      -4.19440000
H        2.34870000       4.99040000      -5.50330000
