23
Properties=species:S:1:pos:R:3 gdb_96006=T pbc="F F F"
C       -0.15950000       1.57320000      -0.06280000
C       -0.14780000       0.08280000       0.27030000
O       -0.10210000      -0.66260000      -0.95590000
C        1.06060000      -1.48340000      -1.00470000
C        2.03080000      -0.89760000       0.01930000
C        1.06220000      -0.41120000       1.11210000
C        1.64150000       0.57730000       2.09590000
C        1.02510000       0.75150000       3.46360000
C        2.37180000       0.08710000       3.32160000
H        0.77950000       1.88620000      -0.53100000
H       -0.96900000       1.77960000      -0.76830000
H       -0.32100000       2.17670000       0.83560000
H       -1.08670000      -0.16820000       0.78240000
H        0.80510000      -2.52410000      -0.74730000
H        1.44440000      -1.47730000      -2.03040000
H        2.76020000      -1.62370000       0.38670000
H        2.58180000      -0.05200000      -0.40830000
H        0.72770000      -1.29220000       1.67680000
H        2.04340000       1.47970000       1.64340000
H        0.98370000       1.74790000       3.88920000
H        0.17730000       0.12480000       3.72080000
H        2.42640000      -0.98470000       3.48390000
H        3.25150000       0.62940000       3.65000000
