17
Properties=species:S:1:pos:R:3 gdb_67787=T pbc="F F F"
O       -0.09380000       1.34580000       0.02610000
C        0.05680000      -0.04660000       0.01190000
C        1.03990000      -0.67030000       0.97410000
C        1.33480000      -1.90230000       0.54000000
C        0.55450000      -2.16490000      -0.72340000
C       -1.00040000      -2.16780000      -0.52690000
C       -1.22650000      -1.05230000      -1.51150000
C       -1.32540000      -0.75830000      -0.03880000
C        0.30910000      -0.76190000      -1.36240000
H        0.77870000       1.73610000      -0.09510000
H        1.35020000      -0.20680000       1.90370000
H        1.94440000      -2.63770000       1.05230000
H        0.91200000      -2.95650000      -1.38250000
H       -1.63650000      -3.01220000      -0.29450000
H       -1.92690000      -0.93240000      -2.32380000
H       -2.19480000      -0.53510000       0.56530000
H        0.98840000      -0.33360000      -2.09950000
