21
Properties=species:S:1:pos:R:3 gdb_90733=T pbc="F F F"
C        0.45830000       1.57990000      -0.16720000
C        0.11840000       0.10620000       0.00930000
C        0.85770000      -0.92490000      -0.89200000
C        1.22230000      -1.77370000       0.37460000
C        0.60980000      -0.66330000       1.28280000
C        1.78450000      -0.07340000       2.10390000
C        3.07800000      -0.49760000       1.38570000
C        2.71600000      -1.80020000       0.65950000
O        3.48120000      -2.68490000       0.37080000
H        1.53720000       1.76320000      -0.11400000
H        0.11610000       1.93820000      -1.14440000
H       -0.02350000       2.19820000       0.59840000
H       -0.96510000      -0.01630000      -0.08930000
H        0.24170000      -1.44640000      -1.62710000
H        1.72980000      -0.51760000      -1.41350000
H        0.79090000      -2.77420000       0.39760000
H       -0.20520000      -0.96980000       1.94130000
H        1.70340000       1.00910000       2.23450000
H        1.76790000      -0.51370000       3.10680000
H        3.37420000       0.23460000       0.62250000
H        3.94000000      -0.64380000       2.03960000
