21
Properties=species:S:1:pos:R:3 gdb_80389=T pbc="F F F"
C       -0.05680000       1.55110000      -0.05280000
C        0.08220000       0.05010000       0.10410000
C        1.33090000      -0.76730000      -0.15590000
C        2.58030000      -0.03090000       0.33940000
C        1.99090000      -0.06420000       1.79960000
C        2.75520000      -1.01090000       2.71890000
O        1.75160000       1.17880000       2.44670000
C        0.71410000      -0.70560000       1.24320000
O        0.04060000      -1.71750000       1.91380000
H        0.78810000       2.09130000       0.37420000
H       -0.15060000       1.82060000      -1.11110000
H       -0.95730000       1.90700000       0.46010000
H       -0.79620000      -0.50070000      -0.23230000
H        1.33150000      -1.59620000      -0.85290000
H        3.50250000      -0.60920000       0.24270000
H        2.74330000       0.96860000      -0.07220000
H        3.74430000      -0.59660000       2.95150000
H        2.20590000      -1.15710000       3.65270000
H        2.89920000      -1.98910000       2.25310000
H        2.57500000       1.46650000       2.85580000
H       -0.69880000      -1.32190000       2.38770000
