14
Properties=species:S:1:pos:R:3 gdb_132601=T pbc="F F F"
N        0.02550000       1.40750000       0.20100000
C       -0.02920000       0.03970000       0.06590000
C       -1.21760000      -0.68670000       0.01570000
C       -1.14160000      -2.07800000      -0.06850000
O       -2.29860000      -2.77680000      -0.11510000
N       -0.01230000      -2.77540000      -0.10840000
C        1.13290000      -2.07650000      -0.06490000
C        1.16290000      -0.70630000       0.02020000
F        2.33120000      -0.03410000       0.05130000
H        0.90570000       1.83630000      -0.03780000
H       -0.78660000       1.92880000      -0.08770000
H       -2.18260000      -0.19520000       0.04580000
H       -2.03830000      -3.70670000      -0.17020000
H        2.06510000      -2.63310000      -0.10250000
