20
Properties=species:S:1:pos:R:3 gdb_54266=T pbc="F F F"
C       -0.29530000       1.67410000      -0.09950000
C        0.06470000       0.19300000      -0.01280000
C        1.00540000      -0.28240000      -1.17800000
C        2.08970000      -1.16210000      -0.50760000
N        1.53430000      -1.42450000       0.83210000
H       -0.11260000      -2.10250000       0.52820000
H        2.22820000      -1.75840000       1.49150000
C        0.90550000      -0.16040000       1.23780000
C       -1.22350000      -0.66050000      -0.03580000
O       -2.30150000      -0.21600000      -0.33410000
O       -1.06070000      -1.95580000       0.27900000
H        0.61180000       2.28730000      -0.11780000
H       -0.87750000       1.87530000      -1.00070000
H       -0.90650000       1.98190000       0.75360000
H        0.44850000      -0.83590000      -1.93710000
H        1.45390000       0.58160000      -1.67330000
H        2.27140000      -2.10210000      -1.03510000
H        3.04280000      -0.61520000      -0.45380000
H        1.63800000       0.64030000       1.42900000
H        0.30330000      -0.29890000       2.14050000
