20
Properties=species:S:1:pos:R:3 gdb_7770=T pbc="F F F"
C       -0.02490000       1.55520000      -0.01060000
C        0.01950000       0.01920000       0.00340000
C        0.66680000      -0.53720000      -1.27580000
C        0.96810000      -2.02660000      -1.15010000
O        1.46270000      -2.47180000      -2.40700000
C        1.97080000      -2.27140000      -0.01490000
C        1.60210000      -1.50320000       1.22880000
C        0.72690000      -0.49840000       1.23430000
H        0.98680000       1.97490000      -0.03080000
H       -0.56100000       1.92310000      -0.89170000
H       -0.53150000       1.94500000       0.87860000
H       -1.02380000      -0.33340000       0.04290000
H        0.01870000      -0.36820000      -2.14190000
H        1.60890000      -0.00900000      -1.47310000
H        0.02920000      -2.55230000      -0.90520000
H        1.67780000      -3.40670000      -2.32730000
H        2.03170000      -3.34520000       0.21210000
H        2.97110000      -1.98020000      -0.36700000
H        2.08080000      -1.80690000       2.15690000
H        0.49310000       0.00380000       2.17150000
