17
Properties=species:S:1:pos:R:3 gdb_25017=T pbc="F F F"
N        0.02370000       1.25770000       0.15350000
C        0.01050000      -0.00650000       0.06050000
N       -1.07610000      -0.80750000      -0.19950000
C       -0.68470000      -2.14860000      -0.22190000
C        0.63260000      -2.17770000       0.02170000
O        1.08310000      -0.87160000       0.19870000
C        1.61510000      -3.25490000       0.12770000
C        3.03790000      -3.05980000      -0.36160000
C        2.76550000      -3.16330000       1.11250000
H        0.96160000       1.59390000       0.35250000
H       -1.99650000      -0.43570000      -0.34290000
H       -1.37740000      -2.95040000      -0.40830000
H        1.17940000      -4.23700000      -0.02170000
H        3.51330000      -3.89410000      -0.86480000
H        3.29180000      -2.08390000      -0.75810000
H        2.83740000      -2.25650000       1.70140000
H        3.05150000      -4.06950000       1.63420000
