20
Properties=species:S:1:pos:R:3 gdb_107416=T pbc="F F F"
O        0.08390000       1.28070000      -0.49820000
C        0.02630000       0.05530000       0.21560000
C       -1.37110000      -0.51010000       0.21740000
C       -2.45920000       0.14700000       1.05800000
C       -3.63250000      -0.85210000       1.06240000
O       -4.49220000      -0.49770000      -0.02780000
C       -2.97550000      -2.23980000       0.85490000
C       -1.69850000      -1.95690000       0.08000000
N       -1.79320000      -1.06330000      -1.08640000
H       -0.25680000       1.08460000      -1.37940000
H        0.71720000      -0.68780000      -0.21000000
H        0.35730000       0.27960000       1.23590000
H       -2.09040000       0.30240000       2.07860000
H       -2.77820000       1.11840000       0.67070000
H       -4.19850000      -0.80900000       2.00140000
H       -5.19170000      -1.15740000      -0.08190000
H       -2.72740000      -2.69250000       1.82300000
H       -3.65380000      -2.93190000       0.34060000
H       -0.93660000      -2.72910000       0.01540000
H       -2.76790000      -0.83060000      -1.26810000
