20
Properties=species:S:1:pos:R:3 gdb_111516=T pbc="F F F"
O        0.12000000       1.33010000       0.24550000
C        0.02400000      -0.03390000      -0.11780000
C       -1.41590000      -0.56770000      -0.03960000
C       -1.51680000      -2.08510000      -0.01350000
N       -1.17640000      -2.63850000       1.32480000
C       -2.59650000      -2.48690000       0.92110000
C       -3.22570000      -1.23350000       1.49890000
C       -2.15820000      -0.13610000       1.26460000
O       -1.26600000      -0.01830000       2.37050000
H       -0.09000000       1.34850000       1.18920000
H        0.39700000      -0.11390000      -1.14480000
H        0.67180000      -0.66070000       0.51230000
H       -1.98980000      -0.19380000      -0.89730000
H       -1.26790000      -2.67420000      -0.89040000
H       -0.89100000      -3.60960000       1.23850000
H       -3.18610000      -3.38430000       0.76510000
H       -4.14670000      -1.00370000       0.95010000
H       -3.47200000      -1.31110000       2.56160000
H       -2.61040000       0.85040000       1.15040000
H       -0.88090000      -0.90410000       2.47260000
