20
Properties=species:S:1:pos:R:3 gdb_10880=T pbc="F F F"
C       -0.15570000       1.56110000      -0.04910000
C        0.03530000       0.05060000      -0.01260000
C        1.21670000      -0.65770000      -0.75400000
C        2.15410000      -0.16200000       0.38190000
C        0.87170000      -0.65550000       1.11970000
C        0.59080000      -0.66400000       2.59830000
C        0.96110000      -1.89450000       0.16150000
O       -0.11740000      -2.76670000      -0.02720000
H        0.76810000       2.12370000       0.10430000
H       -0.57150000       1.86940000      -1.01480000
H       -0.86580000       1.87510000       0.72440000
H       -0.94690000      -0.40910000      -0.18840000
H        1.42100000      -0.65490000      -1.82590000
H        3.06410000      -0.74570000       0.55170000
H        2.37010000       0.90480000       0.41850000
H        0.51910000       0.35240000       3.00130000
H       -0.35310000      -1.17860000       2.81040000
H        1.38370000      -1.18570000       3.14550000
H        1.83120000      -2.53630000       0.32500000
H       -0.90790000      -2.25950000      -0.23690000
