19
Properties=species:S:1:pos:R:3 gdb_121222=T pbc="F F F"
O       -0.03250000       1.39750000       0.10640000
C       -0.00150000      -0.02010000       0.06880000
C       -1.44230000      -0.50850000      -0.04000000
C       -1.51950000      -2.02290000      -0.09950000
O       -1.08680000      -2.66400000       1.12410000
C       -2.25230000      -3.50510000       1.14760000
C       -2.90030000      -2.75500000      -0.04150000
C       -4.09230000      -1.91060000       0.32700000
O       -5.07500000      -1.78770000      -0.35770000
H        0.86430000       1.71420000       0.24740000
H        0.57950000      -0.38570000      -0.79450000
H        0.45630000      -0.44050000       0.97610000
H       -2.00430000      -0.12710000       0.81810000
H       -1.89700000      -0.08830000      -0.94570000
H       -0.92510000      -2.39110000      -0.94920000
H       -2.01510000      -4.55500000       0.93670000
H       -2.78290000      -3.44430000       2.10610000
H       -3.14580000      -3.34830000      -0.92240000
H       -4.01440000      -1.39970000       1.31420000
