22
Properties=species:S:1:pos:R:3 gdb_116635=T pbc="F F F"
C       -0.05240000       1.53090000      -0.26250000
C       -0.01330000       0.04220000       0.09940000
N       -1.35670000      -0.52200000       0.08940000
C       -1.73910000      -1.24190000      -0.87660000
C       -3.15250000      -1.77750000      -0.93640000
C       -3.23460000      -3.19250000      -1.52590000
C       -2.46110000      -3.23080000      -2.84640000
C       -1.02910000      -2.77200000      -2.60420000
O       -0.94810000      -1.48540000      -1.97400000
H        0.94180000       1.97850000      -0.16270000
H       -0.38760000       1.66900000      -1.29520000
H       -0.74320000       2.06870000       0.39340000
H        0.67010000      -0.48500000      -0.57720000
H        0.37400000      -0.06520000       1.11990000
H       -3.57720000      -1.71690000       0.06660000
H       -3.73200000      -1.09740000      -1.57680000
H       -2.79850000      -3.91550000      -0.82410000
H       -4.28030000      -3.48140000      -1.67040000
H       -2.44420000      -4.23870000      -3.27550000
H       -2.93860000      -2.57030000      -3.58070000
H       -0.50170000      -3.50510000      -1.97610000
H       -0.47140000      -2.66790000      -3.53850000
