14
Properties=species:S:1:pos:R:3 gdb_3732=T pbc="F F F"
C       -0.15820000       1.54060000       0.10360000
C        0.11020000       0.04050000      -0.00780000
N        0.74120000      -0.50030000       1.18620000
C        0.25090000      -1.35280000       2.10870000
N        1.14260000      -1.57770000       3.05720000
C        2.19220000      -0.81260000       2.65360000
N        2.00200000      -0.14040000       1.52860000
H        0.77590000       2.07820000       0.28080000
H       -0.60460000       1.90970000      -0.82430000
H       -0.84410000       1.75550000       0.92810000
H       -0.81900000      -0.51730000      -0.15550000
H        0.76560000      -0.17090000      -0.85800000
H       -0.74000000      -1.77740000       2.04430000
H        3.12220000      -0.75060000       3.19890000
