17
Properties=species:S:1:pos:R:3 gdb_32286=T pbc="F F F"
C        0.05440000       1.55780000      -0.10830000
C       -0.06980000       0.03220000       0.05360000
C        0.64830000      -0.49600000       1.26750000
C        0.02040000      -0.94680000       2.38520000
C        0.75580000      -1.42730000       3.51320000
C        2.10020000      -1.42650000       3.43540000
O        2.76440000      -0.99780000       2.35010000
C        2.10740000      -0.51090000       1.20920000
O        2.79580000      -0.15560000       0.28760000
H        1.10340000       1.84680000      -0.20270000
H       -0.47510000       1.89050000      -1.00610000
H       -0.37420000       2.08090000       0.75260000
H       -1.12600000      -0.25150000       0.11630000
H        0.34670000      -0.45040000      -0.83760000
H       -1.06560000      -0.94420000       2.42460000
H        0.26150000      -1.78410000       4.40650000
H        2.77380000      -1.76250000       4.21470000
