19
Properties=species:S:1:pos:R:3 gdb_81478=T pbc="F F F"
O        0.07410000       1.43440000      -0.02460000
C        0.09910000       0.03360000      -0.07460000
C        0.17440000      -0.63910000       1.32710000
O       -1.25650000      -0.30790000       1.44490000
C       -1.31200000      -0.61850000       0.00560000
C       -1.25110000      -2.18430000      -0.15620000
C       -1.15380000      -2.76190000       1.29110000
C        0.30370000      -2.20580000       1.22610000
C        0.24400000      -2.61220000      -0.27880000
H       -0.54810000       1.66220000       0.67880000
H        0.79790000      -0.22910000      -0.86470000
H        0.77150000      -0.17830000       2.11680000
H       -2.15890000      -0.13770000      -0.48850000
H       -1.99020000      -2.56960000      -0.86030000
H       -1.82720000      -2.38240000       2.05450000
H       -1.15630000      -3.85350000       1.27690000
H        1.08340000      -2.61220000       1.87230000
H        0.33080000      -3.69550000      -0.39330000
H        0.89920000      -2.13790000      -1.00830000
