21
Properties=species:S:1:pos:R:3 gdb_90984=T pbc="F F F"
C       -0.09150000       1.53270000      -0.06020000
C        0.03950000       0.01960000       0.04070000
O        0.87700000      -0.48290000      -1.01960000
C        1.87030000      -1.18710000      -0.31110000
C        1.25440000      -1.97110000       0.88250000
C        2.56880000      -1.75180000       1.66280000
C        2.31740000      -0.40110000       0.95610000
C        0.77560000      -0.52020000       1.27700000
C        0.19100000      -0.20320000       2.63440000
H        0.87740000       2.02150000       0.08210000
H       -0.47040000       1.81050000      -1.04770000
H       -0.78990000       1.91580000       0.69110000
H       -0.95470000      -0.44370000      -0.04820000
H        2.59220000      -1.64360000      -0.98750000
H        0.63520000      -2.86880000       0.83360000
H        2.50750000      -1.76110000       2.75250000
H        3.43790000      -2.32380000       1.32480000
H        2.92780000       0.50270000       0.99210000
H        0.16900000       0.87710000       2.81310000
H       -0.83950000      -0.57010000       2.70860000
H        0.76330000      -0.65980000       3.44640000
