13
Properties=species:S:1:pos:R:3 gdb_7946=T pbc="F F F"
O        0.17220000       1.28540000       0.42430000
C       -0.02910000      -0.04440000       0.03240000
C       -1.49850000      -0.40630000      -0.17950000
C       -1.44590000      -1.37510000      -1.33750000
N       -2.31810000      -2.20840000      -1.67650000
O       -0.23750000      -1.19500000      -2.02540000
C        0.57810000      -0.33160000      -1.34020000
O        1.59260000       0.11120000      -1.78620000
H        1.04880000       1.54170000       0.10810000
H        0.43770000      -0.75110000       0.74030000
H       -2.00100000      -0.84450000       0.68130000
H       -2.04380000       0.49530000      -0.47980000
H       -2.03450000      -2.73110000      -2.50670000
