18
Properties=species:S:1:pos:R:3 gdb_22802=T pbc="F F F"
O       -0.03410000       1.34910000      -0.07180000
N        0.03490000      -0.03880000      -0.03820000
C       -1.10610000      -0.61100000       0.04060000
C       -1.13420000      -2.12100000       0.04310000
C       -2.11540000      -2.65750000      -1.01460000
C       -3.51230000      -2.05490000      -0.82110000
C       -3.47670000      -0.51510000      -0.87720000
C       -2.45480000       0.08130000       0.08240000
O       -2.70060000       1.00350000       0.82140000
H        0.89330000       1.59550000      -0.15960000
H       -0.11880000      -2.49390000      -0.11330000
H       -1.46090000      -2.46870000       1.03400000
H       -1.74110000      -2.40980000      -2.01610000
H       -2.16080000      -3.74980000      -0.95340000
H       -4.20280000      -2.43150000      -1.58280000
H       -3.91520000      -2.37190000       0.14960000
H       -3.18260000      -0.20200000      -1.89000000
H       -4.45000000      -0.06740000      -0.66110000
