16
Properties=species:S:1:pos:R:3 gdb_124214=T pbc="F F F"
C        0.82210000      -0.48910000       1.28790000
C        0.31830000       0.10250000      -0.00150000
N        0.18690000       1.37090000      -0.08850000
N        0.02010000      -0.77340000      -1.03940000
C        0.09590000      -2.15320000      -1.13500000
N       -0.26860000      -2.71980000      -2.29090000
N       -0.08400000      -4.01870000      -2.06110000
N        0.36470000      -4.34990000      -0.86880000
C        0.49280000      -3.17730000      -0.24410000
H        0.08920000      -1.17480000       1.72500000
H        1.75430000      -1.04220000       1.13520000
H        1.00260000       0.33020000       1.98160000
H       -0.16110000       1.65530000      -1.00730000
H       -0.31530000      -0.34210000      -1.88920000
H       -0.27960000      -4.70840000      -2.76760000
H        0.84830000      -3.13510000       0.76860000
