20
Properties=species:S:1:pos:R:3 gdb_81968=T pbc="F F F"
C        0.00410000       1.57290000       0.01060000
C        0.07060000       0.04580000       0.01000000
C        0.82850000      -0.57090000      -1.16120000
N        2.29870000      -0.54420000      -0.95150000
C        1.52950000      -1.79170000      -0.70150000
C        1.21310000      -2.00130000       0.77550000
O        2.26010000      -2.52350000       1.55320000
C        0.77200000      -0.58080000       1.24690000
O        1.91800000       0.14380000       1.67830000
H        1.00490000       2.01080000       0.02080000
H       -0.52020000       1.93820000      -0.87880000
H       -0.52930000       1.94260000       0.89160000
H       -0.95220000      -0.35490000      -0.02080000
H        0.44970000      -0.46670000      -2.17330000
H        2.78250000      -0.61070000      -1.84220000
H        1.70750000      -2.64420000      -1.34790000
H        0.36620000      -2.69740000       0.84280000
H        2.70560000      -1.74550000       1.92130000
H        0.10630000      -0.63000000       2.11190000
H        2.45870000       0.24290000       0.87320000
