14
Properties=species:S:1:pos:R:3 gdb_21935=T pbc="F F F"
O        0.05830000       1.30480000      -0.49830000
C       -0.02510000       0.00860000       0.08380000
C       -1.44740000      -0.44880000       0.01970000
N       -1.73430000      -1.71170000      -0.27020000
N       -3.09120000      -1.76870000      -0.19480000
C       -3.64110000      -0.57470000       0.11740000
O       -4.98590000      -0.48690000       0.20940000
C       -2.60820000       0.32430000       0.27370000
H        0.94930000       1.63510000      -0.34980000
H        0.60160000      -0.72600000      -0.44130000
H        0.30950000       0.03670000       1.13410000
H       -3.57520000      -2.62740000      -0.39250000
H       -5.21960000       0.42240000       0.41960000
H       -2.66910000       1.37290000       0.51120000
