17
Properties=species:S:1:pos:R:3 gdb_30444=T pbc="F F F"
C       -0.11750000       1.45840000       0.01670000
N       -0.00450000       0.01360000      -0.01340000
C       -1.05590000      -0.69390000       0.00770000
O       -2.31920000      -0.05020000       0.05370000
C       -3.47960000      -0.73220000       0.08410000
N       -4.54870000       0.12260000       0.20090000
C       -3.52420000      -2.09050000       0.05470000
C       -2.28140000      -2.79210000       0.00670000
C       -1.09760000      -2.13330000      -0.01530000
H        0.88420000       1.89550000       0.00140000
H       -0.67380000       1.85210000      -0.84670000
H       -0.63450000       1.81890000       0.91770000
H       -4.37640000       1.06130000      -0.12780000
H       -5.44390000      -0.25310000      -0.06990000
H       -4.47420000      -2.60610000       0.07840000
H       -2.29630000      -3.87710000      -0.01400000
H       -0.14200000      -2.63740000      -0.05290000
