12
Properties=species:S:1:pos:R:3 gdb_66414=T pbc="F F F"
O       -0.08390000       1.46990000       0.04320000
C       -0.02190000       0.11310000      -0.02340000
C       -1.11560000      -0.90720000      -0.09950000
O       -0.36960000      -1.70920000      -1.04240000
C        0.63710000      -0.74350000      -1.10300000
O        1.57280000      -0.69930000      -1.82220000
C       -0.34760000      -0.80920000       1.19130000
C        0.51830000      -1.84840000       1.67710000
N        1.22250000      -2.67040000       2.08310000
H        0.74260000       1.80790000       0.40970000
H       -2.18590000      -0.83370000      -0.22560000
H       -0.86220000      -0.24120000       1.96320000
