17
Properties=species:S:1:pos:R:3 gdb_83300=T pbc="F F F"
O        0.15830000       1.35630000       0.31990000
C        0.00200000      -0.01060000       0.07340000
C       -1.44700000      -0.49910000      -0.13940000
C       -1.18940000      -1.89410000      -0.74040000
C       -0.41380000      -1.31940000      -1.94970000
C       -1.46070000      -0.27430000      -2.42920000
O       -2.04530000       0.22680000      -1.21800000
C        0.63110000      -0.44710000      -1.26580000
O        1.67740000      -0.03000000      -1.69450000
H        0.97130000       1.62450000      -0.12920000
H        0.44880000      -0.62040000       0.88100000
H       -2.09680000      -0.42670000       0.73160000
H       -0.59350000      -2.55260000      -0.10420000
H       -2.11360000      -2.40030000      -1.02640000
H       -0.04580000      -1.98620000      -2.72690000
H       -1.01490000       0.54900000      -2.99690000
H       -2.22980000      -0.75490000      -3.04750000
