16
Properties=species:S:1:pos:R:3 gdb_60523=T pbc="F F F"
O       -0.37240000       1.32080000      -0.23400000
C       -0.13320000      -0.04630000      -0.02600000
C        0.69600000      -0.64630000      -1.16690000
C        0.58620000      -0.06580000      -2.52320000
N        1.81220000       0.12750000      -1.72110000
C        0.58550000      -0.23080000       1.30320000
O        0.95130000       0.71970000       1.96010000
C        0.82420000      -1.63980000       1.84880000
O        0.39780000      -2.63270000       1.32170000
H        0.01200000       1.78260000       0.52760000
H       -1.08270000      -0.60220000       0.03230000
H        0.88390000      -1.71000000      -1.05650000
H        0.70130000      -0.70830000      -3.39100000
H       -0.07460000       0.78500000      -2.65080000
H        1.77270000       1.06630000      -1.32590000
H        1.40580000      -1.64420000       2.79320000
