17
Properties=species:S:1:pos:R:3 gdb_76065=T pbc="F F F"
C       -0.02800000       1.47810000       0.17730000
C        0.04820000      -0.00400000      -0.11670000
O        1.10430000      -0.53930000      -0.41810000
C       -1.22110000      -0.76710000      -0.04000000
C       -1.32360000      -2.07010000      -0.83880000
O       -0.29950000      -2.48410000      -1.65060000
C       -1.24900000      -2.15950000       0.66590000
C       -0.09390000      -2.68520000       1.32300000
C        0.85940000      -3.15690000       1.88340000
H        0.96020000       1.92800000       0.07890000
H       -0.72700000       1.96560000      -0.51210000
H       -0.41250000       1.64210000       1.19040000
H       -2.12230000      -0.17800000       0.08900000
H       -2.29180000      -2.27880000      -1.28370000
H        0.51810000      -2.06900000      -1.31680000
H       -2.19070000      -2.34730000       1.17450000
H        1.70770000      -3.56970000       2.37060000
