18
Properties=species:S:1:pos:R:3 gdb_87438=T pbc="F F F"
C       -0.00800000       1.55830000      -0.18990000
C       -0.04510000       0.06440000       0.00050000
O        1.22440000      -0.63360000      -0.10260000
C        0.56890000      -0.61000000       1.13750000
C        1.11660000      -0.19710000       2.49020000
C       -0.10540000      -0.82330000       3.23700000
C        0.85810000      -1.61980000       4.10760000
N        1.59520000      -1.65920000       2.77100000
C        0.21790000      -1.77510000       2.04010000
H        0.82240000       2.00160000       0.36540000
H        0.11530000       1.80750000      -1.24880000
H       -0.94340000       2.01210000       0.15520000
H       -0.85770000      -0.45290000      -0.51300000
H        1.72800000       0.65260000       2.79410000
H       -1.06250000      -0.34500000       3.47060000
H        1.40680000      -1.08950000       4.89250000
H        0.54290000      -2.60700000       4.46050000
H       -0.21310000      -2.75180000       1.81970000
