12
Properties=species:S:1:pos:R:3 gdb_21566=T pbc="F F F"
N        0.05930000       1.41400000      -0.16490000
C       -0.03570000       0.04190000      -0.05330000
C       -1.18650000      -0.68290000      -0.01860000
C       -1.12380000      -2.12240000       0.02100000
O       -2.07300000      -2.87490000       0.05920000
N        0.21250000      -2.70940000       0.02610000
N        1.25140000      -2.01060000      -0.00360000
N        1.14670000      -0.64520000      -0.03150000
H        0.81980000       1.85040000       0.33810000
H       -0.81530000       1.89950000      -0.02460000
H       -2.15500000      -0.19910000      -0.01290000
H        2.03640000      -0.18690000      -0.14910000
