17
Properties=species:S:1:pos:R:3 gdb_125428=T pbc="F F F"
C       -0.00760000       1.46040000      -0.19100000
C       -0.05930000      -0.01400000      -0.01060000
N       -1.06040000      -0.81800000      -0.20870000
C       -0.52220000      -2.04800000       0.11910000
N        0.73160000      -2.00190000       0.49520000
O        1.04770000      -0.63760000       0.41000000
C       -1.30680000      -3.29040000       0.04520000
C       -0.63890000      -4.59010000      -0.36700000
C       -1.07170000      -4.40120000       1.05320000
H        0.75730000       1.73270000      -0.92450000
H       -0.97950000       1.81370000      -0.53450000
H        0.24630000       1.95580000       0.75100000
H       -2.32370000      -3.12260000      -0.28700000
H       -1.20760000      -5.26020000      -1.00160000
H        0.42160000      -4.53900000      -0.58420000
H       -0.30420000      -4.22230000       1.79700000
H       -1.94250000      -4.93950000       1.40980000
