18
Properties=species:S:1:pos:R:3 gdb_82275=T pbc="F F F"
C       -0.25600000       1.57690000       0.01510000
C        0.00980000       0.07150000      -0.01520000
N        0.67100000      -0.37690000      -1.27550000
C        2.02510000       0.13000000      -1.48670000
C        1.82400000      -1.22480000      -0.88320000
C        1.86690000      -1.24580000       0.59580000
C        0.88550000      -0.48110000       1.10430000
C        0.66450000      -0.26930000       2.53350000
O       -0.21550000       0.42150000       3.00330000
H        0.67280000       2.15460000      -0.00830000
H       -0.86160000       1.86430000      -0.84870000
H       -0.79120000       1.83200000       0.93140000
H       -0.96360000      -0.43550000       0.02140000
H        2.31390000       0.21240000      -2.53090000
H        2.42050000       0.90450000      -0.83490000
H        2.02490000      -2.12540000      -1.45590000
H        2.59760000      -1.80210000       1.17260000
H        1.37360000      -0.81740000       3.19360000
