14
Properties=species:S:1:pos:R:3 gdb_69193=T pbc="F F F"
O       -0.18320000       1.39520000       0.06320000
C       -0.07040000       0.03020000       0.01750000
C       -0.33110000      -0.80130000      -1.18140000
C       -1.24830000      -0.97090000       0.04330000
C       -0.54160000      -1.77650000       1.07710000
O       -0.81810000      -2.70520000       1.77000000
C        0.69930000      -0.78770000       1.08600000
C        2.02140000      -1.28620000       0.76390000
N        3.06160000      -1.69270000       0.46240000
H        0.48670000       1.78460000      -0.51060000
H       -0.82990000      -0.28390000      -1.99450000
H        0.34520000      -1.59360000      -1.48690000
H       -2.31500000      -0.80760000      -0.03770000
H        0.70010000      -0.26470000       2.04750000
