18
Properties=species:S:1:pos:R:3 gdb_115696=T pbc="F F F"
N        0.83940000      -0.11990000      -0.35820000
C       -0.28630000       0.60300000      -0.14050000
O       -0.34070000       1.81730000      -0.07670000
C       -1.54220000      -0.24540000       0.04070000
O       -1.30970000      -1.67250000      -0.01010000
C       -1.87530000      -1.85970000       1.30870000
C       -2.12860000      -0.34380000       1.47620000
C       -1.38050000       0.36330000       2.60050000
O       -1.95810000       0.09110000       3.86820000
H        1.70520000       0.35720000      -0.54570000
H        0.77180000      -1.12170000      -0.43350000
H       -2.26540000       0.07430000      -0.71820000
H       -2.76600000      -2.49620000       1.27560000
H       -1.14660000      -2.30210000       2.00240000
H       -3.18570000      -0.07900000       1.53290000
H       -0.31410000       0.08950000       2.57710000
H       -1.43810000       1.44510000       2.45690000
H       -1.78710000      -0.83070000       4.08540000
