20
Properties=species:S:1:pos:R:3 gdb_83779=T pbc="F F F"
O       -0.11460000       1.53330000       0.00360000
C       -0.05200000       0.12800000       0.04750000
C        0.19640000      -0.62280000       1.38840000
C       -0.40230000       0.16920000       2.55450000
C       -1.85120000       0.58870000       2.19560000
C       -2.39250000      -0.41580000       1.17020000
C       -1.99790000      -1.84040000       1.62840000
N       -0.71280000      -1.73660000       0.86070000
C       -1.36530000      -0.64820000       0.00850000
H        0.77480000       1.87510000      -0.12720000
H        0.60710000      -0.26730000      -0.73610000
H        1.20970000      -0.97480000       1.60020000
H       -0.38050000      -0.44490000       3.46080000
H        0.22070000       1.04630000       2.75620000
H       -2.48750000       0.58870000       3.08800000
H       -1.86250000       1.59630000       1.77650000
H       -3.43030000      -0.21720000       0.89100000
H       -1.90980000      -2.03380000       2.70260000
H       -2.59900000      -2.63660000       1.17830000
H       -1.79460000      -0.94370000      -0.95290000
