18
Properties=species:S:1:pos:R:3 gdb_86272=T pbc="F F F"
C        0.08460000       1.57240000      -0.05800000
C        0.07640000       0.05390000       0.00390000
C        1.00370000      -0.76070000      -0.94160000
C        1.29320000      -1.74070000       0.22440000
O        2.59210000      -2.19850000       0.44450000
C        0.76490000      -0.63860000       1.22320000
O        1.84040000       0.15800000       1.68700000
C       -0.09200000      -1.07220000       2.32700000
N       -0.76600000      -1.44380000       3.19030000
H        1.09620000       1.96510000       0.06830000
H       -0.29880000       1.91020000      -1.02630000
H       -0.54700000       2.00540000       0.72390000
H       -0.94810000      -0.32360000      -0.06400000
H        0.56650000      -1.17730000      -1.85040000
H        1.90100000      -0.19330000      -1.20890000
H        0.64000000      -2.61570000       0.21220000
H        3.16740000      -1.42390000       0.43240000
H        2.30420000      -0.34600000       2.36680000
