22
Properties=species:S:1:pos:R:3 gdb_123173=T pbc="F F F"
C       -0.77370000       0.43450000       0.60520000
O       -0.47600000      -0.88260000       0.20620000
C        0.42050000      -0.94510000      -0.88010000
C        0.58490000      -2.39270000      -1.29550000
O       -0.59580000      -2.81680000      -1.94970000
C       -0.78220000      -4.22040000      -2.02180000
C       -1.86550000      -4.69530000      -1.07190000
C       -2.14090000      -4.00840000       0.21260000
N       -3.09090000      -3.90210000      -0.91650000
H        0.12890000       0.97580000       0.93060000
H       -1.24460000       1.00930000      -0.20740000
H       -1.47010000       0.37210000       1.44440000
H        0.04250000      -0.36010000      -1.73420000
H        1.40380000      -0.53100000      -0.59870000
H        1.45210000      -2.48240000      -1.96940000
H        0.78350000      -2.99940000      -0.40100000
H       -1.07780000      -4.45670000      -3.05330000
H        0.15760000      -4.75590000      -1.82500000
H       -2.04260000      -5.76890000      -1.13280000
H       -2.50210000      -4.58530000       1.05990000
H       -1.56550000      -3.12350000       0.46340000
H       -2.92880000      -2.99820000      -1.35940000
