17
Properties=species:S:1:pos:R:3 gdb_31977=T pbc="F F F"
C        0.01010000       1.27080000      -0.45900000
N       -0.05620000       0.05330000       0.35750000
C       -1.14980000      -0.76580000       0.15910000
C       -1.31460000      -2.02370000      -0.30220000
N       -2.66490000      -2.37460000      -0.31060000
C       -3.24600000      -1.30840000       0.14270000
O       -4.53710000      -1.08700000       0.34340000
C       -5.39060000      -2.18690000       0.00820000
O       -2.44740000      -0.28210000       0.45670000
H        0.95260000       1.78500000      -0.25140000
H       -0.00030000       0.98840000      -1.51540000
H       -0.81920000       1.96970000      -0.28010000
H        0.09960000       0.26090000       1.33790000
H       -0.54700000      -2.70730000      -0.62810000
H       -5.28760000      -2.44440000      -1.04950000
H       -5.14080000      -3.06430000       0.61110000
H       -6.40360000      -1.84830000       0.22430000
