19
Properties=species:S:1:pos:R:3 gdb_86603=T pbc="F F F"
C        0.12230000       1.42870000      -0.09850000
N        0.06050000      -0.00860000      -0.06660000
C       -1.04310000      -0.95160000      -0.26590000
C       -0.02750000      -2.10060000       0.01860000
N        0.08280000      -3.12660000      -0.99290000
C        0.91040000      -2.85940000      -2.17060000
C        1.37640000      -3.80140000      -1.11610000
C        1.03040000      -0.95540000       0.13290000
O        2.22250000      -0.87190000       0.30620000
H        1.15800000       1.72020000       0.09250000
H       -0.18200000       1.82390000      -1.07560000
H       -0.51970000       1.87590000       0.67020000
H       -1.86250000      -0.84510000       0.45310000
H       -1.44370000      -0.96020000      -1.28530000
H       -0.19810000      -2.58470000       0.98500000
H        0.51060000      -3.23490000      -3.10790000
H        1.43170000      -1.90770000      -2.24080000
H        2.18960000      -3.45590000      -0.48350000
H        1.32510000      -4.87500000      -1.27470000
