18
Properties=species:S:1:pos:R:3 gdb_95534=T pbc="F F F"
O       -0.09260000       1.43700000       0.04190000
C       -0.00830000       0.02880000      -0.00540000
C       -1.42480000      -0.52730000       0.07900000
C       -1.40540000      -2.05980000       0.16330000
C       -0.41210000      -2.67450000      -0.78520000
C        0.51970000      -1.98900000      -1.44340000
C        0.69690000      -0.48680000      -1.29040000
C        0.22010000       0.21580000      -2.49050000
N       -0.14330000       0.74440000      -3.45200000
H        0.79360000       1.80970000      -0.01360000
H        0.57990000      -0.35860000       0.84250000
H       -1.92600000      -0.09250000       0.94800000
H       -1.97720000      -0.20090000      -0.80940000
H       -1.16710000      -2.38390000       1.18720000
H       -2.40510000      -2.46120000      -0.04100000
H       -0.46820000      -3.75160000      -0.92400000
H        1.19940000      -2.48660000      -2.12790000
H        1.77030000      -0.26410000      -1.20730000
