19
Properties=species:S:1:pos:R:3 gdb_73487=T pbc="F F F"
O        0.17170000       1.36100000      -0.06340000
C        0.10050000      -0.03030000      -0.09160000
C        0.73810000      -0.64910000      -1.32940000
C       -0.07710000      -1.96500000      -1.51320000
C       -0.78060000      -2.14590000      -0.15330000
C        0.30220000      -2.23270000       0.96740000
C        0.32520000      -0.73460000       1.29820000
O       -1.08930000      -0.48870000       1.60080000
C       -1.27710000      -0.70460000       0.17570000
H       -0.31160000       1.64360000       0.72440000
H        0.63340000       0.03100000      -2.17820000
H        1.80810000      -0.83230000      -1.19100000
H       -0.81610000      -1.84620000      -2.31370000
H        0.54740000      -2.82370000      -1.77500000
H       -1.53190000      -2.93490000      -0.12920000
H       -0.02310000      -2.80560000       1.83840000
H        1.25580000      -2.63360000       0.61250000
H        1.01450000      -0.34650000       2.04960000
H       -2.23030000      -0.35010000      -0.21690000
