16
Properties=species:S:1:pos:R:3 gdb_43002=T pbc="F F F"
O        0.03680000       0.08480000       0.17940000
C       -0.04550000       1.27520000       0.04950000
C       -1.28520000       2.06320000      -0.24220000
N       -1.38220000       3.27100000       0.63170000
C       -0.86920000       3.40930000      -0.73000000
C        0.65010000       3.50650000      -0.76890000
C        1.16620000       2.26580000       0.02370000
C        1.64470000       2.55310000       1.36670000
C        2.05860000       2.78240000       2.47120000
H       -2.18340000       1.54810000      -0.56010000
H       -2.36080000       3.54850000       0.66390000
H       -1.46000000       3.93290000      -1.47480000
H        0.99360000       3.45030000      -1.80660000
H        1.00920000       4.44400000      -0.33950000
H        1.96240000       1.75710000      -0.52970000
H        2.41200000       2.98400000       3.45180000
