21
Properties=species:S:1:pos:R:3 gdb_114077=T pbc="F F F"
C       -0.01820000       1.50330000       0.06720000
C       -0.00630000       0.00440000      -0.02690000
C        0.90370000      -0.80370000      -0.98870000
C        0.71980000      -1.80740000       0.16410000
O        0.67140000      -0.67920000       1.09110000
C       -0.76950000      -2.21630000       0.06540000
C       -1.26610000      -2.95480000       1.29670000
O       -2.66980000      -3.14170000       1.16160000
C       -1.34420000      -0.77110000      -0.08690000
H        0.99790000       1.89990000       0.14480000
H       -0.49450000       1.93570000      -0.81900000
H       -0.58360000       1.82660000       0.94760000
H        0.53430000      -1.05800000      -1.98600000
H        1.91680000      -0.40060000      -1.02430000
H        1.45990000      -2.56480000       0.42590000
H       -0.96080000      -2.83060000      -0.82040000
H       -0.74660000      -3.92370000       1.38460000
H       -1.02200000      -2.36030000       2.18880000
H       -2.99980000      -3.52450000       1.97950000
H       -2.00450000      -0.50120000       0.74050000
H       -1.88520000      -0.61470000      -1.02370000
