22
Properties=species:S:1:pos:R:3 gdb_90095=T pbc="F F F"
C       -0.07750000       1.65540000      -0.05390000
C        0.01810000       0.13400000      -0.01190000
C        0.94050000      -0.60060000      -1.10110000
C        1.84520000      -1.00640000       0.09120000
C        2.44990000      -1.97240000       1.16340000
N        2.07850000      -0.70830000       2.00780000
C        2.65660000       0.09880000       0.83440000
C        4.16360000       0.24990000       0.71880000
C        0.77000000      -0.74770000       1.09680000
H        0.88670000       2.14840000      -0.19750000
H       -0.72180000       1.96350000      -0.88550000
H       -0.52110000       2.04330000       0.86890000
H       -1.00370000      -0.25610000      -0.04960000
H        0.41430000      -1.42820000      -1.58390000
H        1.39420000       0.03150000      -1.87080000
H        1.85670000      -2.85400000       1.41820000
H        3.51640000      -2.20200000       1.18550000
H        2.21280000       1.09410000       0.82610000
H        4.70230000      -0.69050000       0.58610000
H        4.40270000       0.89010000      -0.13740000
H        4.55480000       0.73930000       1.61770000
H        0.12940000      -1.56860000       1.42780000
