15
Properties=species:S:1:pos:R:3 gdb_62411=T pbc="F F F"
C       -0.06330000       1.59360000      -0.03510000
C        0.01860000       0.06310000      -0.05030000
C       -1.29060000      -0.53140000       0.19960000
N       -2.33460000      -0.99020000       0.38890000
C        0.76160000      -0.66630000      -1.19040000
C        2.19690000      -0.36420000      -1.19720000
N        1.70290000      -1.38490000      -0.21870000
C        1.10700000      -0.62450000       0.85720000
O        1.35060000      -0.60930000       2.01700000
H        0.91040000       2.04010000      -0.24740000
H       -0.78120000       1.94860000      -0.77900000
H       -0.38890000       1.93410000       0.95080000
H        0.26500000      -1.22900000      -1.97030000
H        2.80570000      -0.81180000      -1.97530000
H        2.57380000       0.58020000      -0.81620000
