20
Properties=species:S:1:pos:R:3 gdb_85555=T pbc="F F F"
C       -0.02000000       1.58390000      -0.06320000
C        0.04340000       0.05310000       0.03420000
C        0.68850000      -0.52820000      -1.23840000
C        0.96950000      -2.02210000      -1.18750000
O        0.93260000      -2.76030000      -2.15090000
N        1.33920000      -2.46610000       0.06140000
C        1.33780000      -1.67020000       1.21440000
C        0.76490000      -0.46330000       1.27160000
C        0.74840000       0.32800000       2.54860000
H        0.98520000       2.01770000      -0.11070000
H       -0.55630000       1.88480000      -0.96870000
H       -0.53870000       2.02620000       0.79160000
H       -0.99600000      -0.31330000       0.08580000
H        0.08180000      -0.33470000      -2.12550000
H        1.65980000      -0.03720000      -1.39910000
H        1.61350000      -3.43490000       0.11850000
H        1.82700000      -2.12160000       2.07050000
H        1.24790000      -0.21700000       3.35480000
H        1.24650000       1.29950000       2.44470000
H       -0.27850000       0.53850000       2.87680000
