23
Properties=species:S:1:pos:R:3 gdb_120892=T pbc="F F F"
C       -0.12260000       1.18980000       0.76370000
C       -0.22860000      -0.13220000       0.02220000
O        0.89850000      -0.26510000      -0.82330000
C        0.92140000      -1.46420000      -1.54720000
C       -0.02110000      -1.61190000      -2.78490000
C        1.19300000      -2.15070000      -3.55410000
C        1.28400000      -3.50710000      -4.19210000
C        1.40190000      -2.25330000      -5.03240000
C        2.14530000      -1.60920000      -2.47890000
H        0.79310000       1.22180000       1.36090000
H       -0.09890000       2.02450000       0.05730000
H       -0.97910000       1.32360000       1.43130000
H       -0.26740000      -0.97440000       0.73420000
H       -1.15820000      -0.16850000      -0.56890000
H        0.81750000      -2.32540000      -0.86930000
H       -0.89430000      -2.26320000      -2.69210000
H       -0.33760000      -0.62630000      -3.14310000
H        2.18150000      -4.09460000      -4.02410000
H        0.37620000      -4.09640000      -4.27960000
H        0.57380000      -1.99690000      -5.68600000
H        2.37810000      -1.99570000      -5.43160000
H        2.54190000      -0.62050000      -2.73050000
H        2.96260000      -2.25200000      -2.14230000
