18
Properties=species:S:1:pos:R:3 gdb_5118=T pbc="F F F"
C       -0.09120000       1.45200000       0.00210000
N        0.01930000       0.00940000      -0.00810000
C        0.12190000      -0.77790000      -1.12640000
C        0.18170000      -2.09210000      -0.72870000
C        0.09750000      -2.12060000       0.69320000
C        0.12450000      -3.32900000       1.57940000
C       -0.00470000      -0.80550000       1.10970000
N       -0.07470000      -0.21650000       2.39460000
H        0.59160000       1.88330000      -0.73520000
H       -1.11030000       1.78540000      -0.23000000
H        0.17490000       1.81040000       0.99720000
H        0.13920000      -0.33320000      -2.10900000
H        0.27580000      -2.94660000      -1.38270000
H        1.10940000      -3.81290000       1.59740000
H       -0.12790000      -3.06660000       2.61240000
H       -0.59540000      -4.08750000       1.25090000
H       -1.01310000      -0.23210000       2.78340000
H        0.53480000      -0.68990000       3.05060000
