15
Properties=species:S:1:pos:R:3 gdb_29368=T pbc="F F F"
N        0.17960000       1.43660000      -0.05750000
C        0.04850000       0.01820000      -0.01660000
C       -1.05300000      -0.82380000       0.09440000
N       -0.61050000      -2.10130000       0.08370000
C        0.77240000      -2.14140000      -0.03240000
C        1.46210000      -3.40020000      -0.06430000
O        0.89240000      -4.47940000       0.00650000
C        1.19090000      -0.81350000      -0.09560000
O        2.45170000      -0.36050000      -0.21160000
H       -0.16870000       1.88390000       0.78380000
H       -0.30570000       1.84950000      -0.84700000
H       -2.10310000      -0.58880000       0.17820000
H       -1.15200000      -2.94760000       0.14730000
H        2.56370000      -3.32810000      -0.15890000
H        2.37130000       0.60750000      -0.22490000
