13
Properties=species:S:1:pos:R:3 gdb_16272=T pbc="F F F"
O       -0.22980000       0.02280000       0.12700000
C       -0.05830000       1.21100000       0.03290000
C        1.25840000       1.86950000       0.00100000
C        1.44490000       3.35960000       0.35980000
C        1.76540000       2.91330000      -1.01580000
N        3.03210000       2.19050000      -1.09530000
C        2.66050000       1.25830000      -0.10560000
O        3.26430000       0.37610000       0.42450000
H       -0.91640000       1.91950000      -0.04570000
H        0.51360000       3.90370000       0.49740000
H        2.23850000       3.62830000       1.05000000
H        1.25560000       3.23910000      -1.91290000
H        3.94000000       2.64040000      -1.12920000
