22
Properties=species:S:1:pos:R:3 gdb_114053=T pbc="F F F"
C       -0.09820000       1.53110000       0.03410000
C        0.14910000       0.05450000       0.01290000
C        0.72140000      -0.77210000      -1.14570000
C        1.34320000      -1.75780000      -0.09600000
C        2.85910000      -1.79720000      -0.12310000
O        3.25660000      -2.38290000      -1.35440000
C        0.73820000      -0.88250000       1.02060000
C        1.27350000      -0.67030000       2.40440000
N       -0.72790000      -0.89360000       0.75670000
H        0.75830000       2.08010000      -0.37210000
H       -0.97620000       1.79260000      -0.56900000
H       -0.27670000       1.89240000       1.05340000
H       -0.01840000      -1.19140000      -1.83150000
H        1.49360000      -0.25010000      -1.71670000
H        0.94410000      -2.77570000      -0.12830000
H        3.25920000      -0.77320000      -0.02310000
H        3.23570000      -2.37960000       0.73370000
H        4.21750000      -2.39810000      -1.38420000
H        2.35160000      -0.47690000       2.39420000
H        0.78770000       0.18550000       2.88660000
H        1.09940000      -1.54940000       3.03690000
H       -1.15970000      -0.35800000       1.51210000
