15
Properties=species:S:1:pos:R:3 gdb_16358=T pbc="F F F"
C       -0.31700000       1.49530000       0.00860000
C        0.12410000       0.05030000       0.00780000
O        1.39340000      -0.15020000      -0.71890000
C        2.00690000      -0.74090000       0.37100000
N        3.14550000      -1.24040000       0.51610000
C        0.80690000      -0.53330000       1.24970000
C        0.71440000      -0.21210000       2.67420000
O        0.25900000      -1.46530000       2.14600000
H        0.45370000       2.13930000       0.44130000
H       -0.52190000       1.83390000      -1.01100000
H       -1.23630000       1.60570000       0.59320000
H       -0.63880000      -0.61640000      -0.40620000
H        3.69080000      -1.19870000      -0.34630000
H        1.61290000      -0.26360000       3.28530000
H       -0.06790000       0.46010000       3.02290000
