19
Properties=species:S:1:pos:R:3 gdb_55456=T pbc="F F F"
C       -0.91840000       0.31580000       0.62190000
C        0.38480000       0.27650000      -0.14060000
O        1.37160000       0.88740000       0.19960000
C        0.43760000      -0.57150000      -1.41590000
C        1.68660000      -1.46160000      -1.47150000
C        1.59540000      -2.35110000      -2.71230000
O        0.35010000      -3.04210000      -2.73650000
C       -0.72260000      -2.14750000      -2.69550000
O       -0.73830000      -1.36280000      -1.52560000
H       -1.73190000       0.64340000      -0.03370000
H       -1.18580000      -0.69270000       0.95300000
H       -0.82050000       0.98620000       1.47600000
H        0.47350000       0.14320000      -2.26020000
H        2.58410000      -0.83850000      -1.48530000
H        1.71890000      -2.08930000      -0.57480000
H        1.70020000      -1.74160000      -3.62610000
H        2.37550000      -3.11600000      -2.72210000
H       -0.69570000      -1.48180000      -3.58050000
H       -1.63990000      -2.73900000      -2.69320000
