17
Properties=species:S:1:pos:R:3 gdb_40616=T pbc="F F F"
C       -0.28220000       1.20340000      -0.31040000
O        0.94530000       1.16820000       0.41990000
C        0.34110000      -0.07740000       0.03380000
C       -0.14890000      -0.90770000       1.19310000
C       -1.51660000      -1.51590000       1.40710000
C       -2.09660000      -2.18330000       0.12470000
O       -1.18180000      -1.99130000      -0.96550000
C       -0.91890000      -3.03050000      -0.01020000
C       -0.27660000      -2.40660000       1.26800000
H       -1.15170000       1.53910000       0.25390000
H       -0.21570000       1.58410000      -1.32890000
H        0.88400000      -0.60490000      -0.74530000
H        0.23460000      -0.50560000       2.12950000
H       -2.10720000      -1.32710000       2.29420000
H       -3.13970000      -2.34530000      -0.11680000
H       -0.78670000      -4.03810000      -0.38430000
H        0.20970000      -3.00100000       2.03050000
