21
Properties=species:S:1:pos:R:3 gdb_97685=T pbc="F F F"
C       -0.09030000       1.54270000      -0.50180000
C       -0.06320000       0.14130000       0.11480000
C       -1.42950000      -0.54130000       0.12840000
C       -1.87730000      -1.26950000      -1.13340000
C       -1.47380000      -2.06270000       0.07480000
C       -2.44730000       0.11630000       0.90530000
C       -3.28470000       0.68490000       1.56050000
C       -4.29490000       1.34970000       2.37070000
O       -5.01750000       2.28610000       1.57670000
H        0.90280000       2.00150000      -0.47430000
H       -0.41810000       1.50770000      -1.54610000
H       -0.78190000       2.19300000       0.04190000
H        0.63450000      -0.49700000      -0.44100000
H        0.31550000       0.19560000       1.14270000
H       -2.92810000      -1.22570000      -1.39240000
H       -1.19970000      -1.24030000      -1.98030000
H       -0.52020000      -2.57990000       0.05880000
H       -2.24990000      -2.56070000       0.64330000
H       -4.97020000       0.59040000       2.79900000
H       -3.80250000       1.84950000       3.22130000
H       -5.66990000       2.70210000       2.14970000
