17
Properties=species:S:1:pos:R:3 gdb_9604=T pbc="F F F"
C       -0.36090000       1.82350000       0.42600000
C       -0.11820000       0.39470000      -0.00230000
C       -1.30390000      -0.25070000      -0.70030000
O       -0.92770000      -1.53910000      -1.16170000
N        1.22260000       0.09650000      -0.50750000
C        0.78870000      -0.50180000       0.78800000
C        1.45670000      -0.07530000       1.98590000
C        1.99450000       0.25870000       3.00860000
H        0.51200000       2.21590000       0.94940000
H       -0.55360000       2.45810000      -0.44610000
H       -1.22480000       1.89170000       1.09670000
H       -2.15230000      -0.30570000      -0.00050000
H       -1.60930000       0.39340000      -1.54100000
H       -1.66700000      -1.92330000      -1.64000000
H        1.14780000      -0.63440000      -1.21370000
H        0.53160000      -1.55710000       0.75950000
H        2.48030000       0.55500000       3.90480000
