19
Properties=species:S:1:pos:R:3 gdb_107293=T pbc="F F F"
O        0.15920000       1.37290000       0.21180000
C        0.06130000      -0.01480000      -0.08550000
C       -1.35560000      -0.50530000      -0.07670000
C       -2.03370000      -0.98820000       1.18200000
C       -1.90260000      -1.94380000       0.03200000
C       -2.94040000      -1.60980000      -1.06120000
O       -4.22240000      -1.10240000      -0.61070000
C       -3.79810000       0.27160000      -0.82500000
C       -2.37620000      -0.18560000      -1.20010000
H       -0.27440000       1.51330000       1.06040000
H        0.50280000      -0.12600000      -1.08260000
H        0.66560000      -0.62260000       0.60820000
H       -1.35880000      -1.18450000       2.01030000
H       -3.01690000      -0.64160000       1.47990000
H       -1.36180000      -2.87930000       0.11760000
H       -3.03060000      -2.32210000      -1.88430000
H       -4.35340000       0.72910000      -1.65290000
H       -3.91430000       0.89040000       0.07240000
H       -1.93530000       0.18540000      -2.12390000
