17
Properties=species:S:1:pos:R:3 gdb_62402=T pbc="F F F"
O       -0.00350000       1.45200000      -0.08680000
C        0.00800000       0.05260000       0.00980000
C        0.93390000      -0.53790000      -0.96520000
N        1.69940000      -0.95300000      -1.72650000
C        0.07650000      -0.67360000       1.40590000
C       -0.97470000       0.09820000       2.21680000
C       -2.11670000       0.11110000       1.14880000
C       -1.38360000      -0.64970000       0.03250000
N       -0.76700000      -1.77720000       0.82310000
H        0.90280000       1.77910000      -0.11320000
H        1.02310000      -0.94100000       1.87440000
H       -1.24340000      -0.44950000       3.12130000
H       -0.63640000       1.10010000       2.48540000
H       -3.00140000      -0.44160000       1.46800000
H       -2.40520000       1.11800000       0.84500000
H       -1.91730000      -0.89070000      -0.88550000
H       -0.18670000      -2.33600000       0.19630000
