22
Properties=species:S:1:pos:R:3 gdb_99603=T pbc="F F F"
C       -0.14180000       1.61990000       0.19230000
C       -0.08650000       0.09080000       0.18220000
C       -1.45850000      -0.57320000      -0.08450000
C       -1.96120000      -0.20960000      -1.41790000
N       -2.34220000       0.06890000      -2.47340000
C       -1.44940000      -2.09860000       0.08500000
C       -0.54110000      -2.86740000      -0.85640000
C       -1.62520000      -2.61090000       1.49480000
C       -2.75110000      -2.74180000       0.49590000
H        0.84750000       2.04130000       0.39220000
H       -0.48540000       2.01090000      -0.77020000
H       -0.82390000       1.98790000       0.96670000
H        0.63100000      -0.24930000      -0.57140000
H        0.26820000      -0.28230000       1.14950000
H       -2.17410000      -0.16140000       0.63990000
H        0.51370000      -2.61640000      -0.70260000
H       -0.64870000      -3.94400000      -0.69670000
H       -0.79040000      -2.65730000      -1.90200000
H       -1.08250000      -3.50590000       1.77940000
H       -1.73840000      -1.88980000       2.29810000
H       -3.62270000      -2.10840000       0.62330000
H       -2.97520000      -3.72610000       0.09990000
