24
Properties=species:S:1:pos:R:3 gdb_101324=T pbc="F F F"
C       -3.41600000       1.91480000       1.29310000
C       -2.96120000       0.57920000       0.69710000
C       -2.98000000      -0.60510000       1.68360000
C       -4.39400000      -0.96470000       2.16200000
C       -2.32610000      -1.81120000       1.03390000
N       -0.85520000      -1.83870000       0.96060000
C       -1.56390000      -2.87690000       1.74180000
C       -1.23100000      -2.88160000       3.21650000
O        0.11880000      -3.26390000       3.42490000
H       -3.31730000       2.72160000       0.56010000
H       -4.46260000       1.88990000       1.61190000
H       -2.80920000       2.18400000       2.16500000
H       -3.58780000       0.33150000      -0.17160000
H       -1.93710000       0.68420000       0.32010000
H       -2.37550000      -0.31730000       2.55190000
H       -4.37240000      -1.80870000       2.85900000
H       -4.87370000      -0.12500000       2.67220000
H       -5.03320000      -1.24870000       1.31710000
H       -2.85770000      -2.15200000       0.14300000
H       -0.54420000      -2.21250000       0.06880000
H       -1.60360000      -3.87190000       1.30050000
H       -1.43570000      -1.89770000       3.66050000
H       -1.84680000      -3.61880000       3.74270000
H        0.64320000      -2.66220000       2.88250000
