19
Properties=species:S:1:pos:R:3 gdb_31261=T pbc="F F F"
C       -0.28030000       1.08110000       0.03140000
N       -0.11450000      -0.35830000      -0.08240000
C        0.68670000      -0.82460000      -1.14270000
C        1.16140000      -2.11490000      -1.25970000
N        1.85940000      -2.21610000      -2.44370000
C        1.84680000      -1.00450000      -3.08230000
C        1.12510000      -0.12280000      -2.30640000
O        1.05600000      -3.17600000      -0.41580000
C       -0.23880000      -3.78790000      -0.40880000
H        0.66860000       1.64010000       0.09070000
H       -0.83550000       1.45850000      -0.83390000
H       -0.86990000       1.30290000       0.92490000
H        0.17980000      -0.76960000       0.79450000
H        2.35510000      -3.04100000      -2.73180000
H        2.35730000      -0.86170000      -4.02020000
H        0.93320000       0.91110000      -2.54540000
H       -0.47770000      -4.21320000      -1.39140000
H       -0.20280000      -4.58710000       0.33520000
H       -1.01230000      -3.06150000      -0.13600000
