12
Properties=species:S:1:pos:R:3 gdb_29109=T pbc="F F F"
N       -0.12380000       1.44860000       0.19190000
C       -0.13640000       0.06000000       0.05490000
C       -1.19140000      -0.62740000      -0.36850000
O       -1.19650000      -1.99410000      -0.50070000
C       -0.08810000      -2.72240000      -0.19540000
O       -0.08550000      -3.90810000      -0.30830000
C        1.15050000      -1.95010000       0.29830000
O        2.16290000      -2.50700000       0.58780000
O        1.04600000      -0.59500000       0.39300000
H        0.58610000       1.87720000      -0.39520000
H        0.05970000       1.72940000       1.15110000
H       -2.12720000      -0.16720000      -0.64200000
