16
Properties=species:S:1:pos:R:3 gdb_15375=T pbc="F F F"
O        0.41250000       0.57740000       0.65460000
C       -0.09650000       0.07070000      -0.56420000
C       -1.50360000      -0.47950000      -0.41600000
C       -1.91630000      -1.70740000      -1.20200000
C       -1.69240000      -1.78940000       0.28380000
O       -0.50650000      -2.38950000       0.78200000
C       -0.45540000      -3.74220000       0.77580000
O        0.47820000      -4.34680000       1.20580000
H        0.52890000      -0.17930000       1.24050000
H       -0.10380000       0.90960000      -1.26750000
H        0.56140000      -0.70290000      -0.98420000
H       -2.26500000       0.26860000      -0.21810000
H       -2.93150000      -1.79140000      -1.57310000
H       -1.16160000      -2.15490000      -1.84090000
H       -2.54290000      -1.91910000       0.94620000
H       -1.36050000      -4.19870000       0.33470000
