22
Properties=species:S:1:pos:R:3 gdb_6157=T pbc="F F F"
C        0.10740000       1.39270000       0.43220000
C        0.03040000      -0.09570000       0.08120000
C       -1.38520000      -0.54030000      -0.24720000
C       -1.67760000      -2.05110000      -0.33680000
C       -2.70050000      -1.79190000       0.80060000
C       -4.16390000      -1.89140000       0.38490000
C       -2.43210000      -2.50180000       2.12010000
O       -2.28900000      -0.39280000       0.87570000
H        1.12540000       1.68560000       0.70570000
H       -0.20470000       2.01560000      -0.41360000
H       -0.55270000       1.61710000       1.27490000
H        0.67200000      -0.32060000      -0.78170000
H        0.40260000      -0.69760000       0.91970000
H       -1.75860000       0.03020000      -1.11130000
H       -2.09630000      -2.40750000      -1.27980000
H       -0.83710000      -2.68930000      -0.05280000
H       -4.46170000      -2.93740000       0.25180000
H       -4.80710000      -1.44610000       1.15080000
H       -4.33810000      -1.36090000      -0.55570000
H       -1.38200000      -2.40190000       2.40810000
H       -3.04660000      -2.06960000       2.91690000
H       -2.67170000      -3.56830000       2.04370000
