15
Properties=species:S:1:pos:R:3 gdb_33692=T pbc="F F F"
N        0.13210000      -1.10540000      -0.03890000
C        0.04800000       0.04900000      -0.02040000
C       -0.03490000       1.46640000       0.01610000
C        0.10400000       2.33810000       1.25310000
C       -1.02040000       3.35230000       1.23780000
C       -1.13690000       3.52380000      -0.25980000
C        0.17650000       3.33150000      -0.92570000
C        1.03280000       2.54490000       0.07640000
N       -0.85890000       2.24640000      -0.99260000
H        0.48760000       1.89080000       2.16040000
H       -1.93870000       2.96270000       1.68740000
H       -0.75050000       4.28840000       1.73730000
H       -1.90890000       4.13560000      -0.71140000
H        0.52560000       3.83700000      -1.81690000
H        2.10690000       2.43730000       0.09920000
