18
Properties=species:S:1:pos:R:3 gdb_72105=T pbc="F F F"
O       -0.09820000       1.40980000       0.01540000
C        0.02220000       0.02510000      -0.03100000
C        1.18170000      -0.68620000       0.65100000
C        0.99340000      -2.11170000       0.09770000
C       -0.15510000      -2.81380000       0.82410000
N       -1.34660000      -1.93830000       0.82300000
C       -1.23320000      -0.80320000      -0.06780000
C       -0.27580000      -0.82610000      -1.25370000
O        0.60060000      -1.93090000      -1.27720000
H        0.62830000       1.78960000      -0.49330000
H        2.13590000      -0.25220000       0.32990000
H        1.12750000      -0.65740000       1.74240000
H        1.89920000      -2.72000000       0.10810000
H       -0.34710000      -3.76540000       0.31290000
H        0.14110000      -3.04560000       1.85750000
H       -2.17090000      -2.47430000       0.58330000
H       -2.15440000      -0.24380000      -0.19040000
H       -0.52370000      -0.43900000      -2.23520000
