18
Properties=species:S:1:pos:R:3 gdb_81922=T pbc="F F F"
C        0.18530000       1.62000000       0.08310000
C        0.02080000       0.10050000       0.01040000
C        0.75330000      -0.60130000      -1.15460000
C        2.12020000      -0.18050000      -1.57080000
N        1.94840000      -1.31110000      -0.64170000
C        2.03850000      -0.98380000       0.72630000
O        3.03790000      -0.92640000       1.39730000
C        0.63660000      -0.64110000       1.23560000
O        0.68380000       0.07360000       2.43460000
H        1.22940000       1.91780000       0.21950000
H       -0.18710000       2.09220000      -0.83100000
H       -0.37100000       2.01570000       0.93560000
H       -1.04460000      -0.13030000      -0.06510000
H        0.15440000      -1.16650000      -1.86240000
H        2.49470000      -0.45820000      -2.55150000
H        2.53980000       0.73630000      -1.16850000
H        0.09280000      -1.59160000       1.36840000
H        1.60000000       0.00160000       2.74490000
