20
Properties=species:S:1:pos:R:3 gdb_120024=T pbc="F F F"
C       -0.18560000       1.45690000      -0.18100000
O        0.00560000       0.06560000      -0.05580000
C        0.56480000      -0.52410000      -1.21100000
C        0.64160000      -2.03280000      -1.01190000
N        1.36350000      -2.56560000       0.17160000
C        2.39380000      -1.79160000       0.83220000
C        0.12510000      -2.89390000       0.90690000
C       -0.64220000      -2.63480000      -0.39440000
O       -1.75210000      -2.82590000      -0.78700000
H        0.76570000       1.98400000      -0.35250000
H       -0.86860000       1.69740000      -1.00970000
H       -0.62370000       1.81170000       0.75450000
H       -0.05990000      -0.32120000      -2.09670000
H        1.56670000      -0.10770000      -1.41210000
H        0.96250000      -2.48810000      -1.95890000
H        2.03580000      -0.82830000       1.22920000
H        2.80520000      -2.37630000       1.66170000
H        3.21510000      -1.59670000       0.13410000
H        0.08040000      -3.90530000       1.32720000
H       -0.16050000      -2.16320000       1.68070000
