16
Properties=species:S:1:pos:R:3 gdb_110822=T pbc="F F F"
O       -0.20190000       1.44600000      -0.34960000
C        0.01570000       0.10320000       0.06350000
C       -1.33380000      -0.57090000       0.05030000
C       -1.89570000      -1.30970000      -1.11630000
O       -0.86780000      -2.01990000      -1.83210000
C       -0.65330000      -2.88030000      -0.68880000
C        0.75150000      -3.01900000      -0.29060000
N        1.84970000      -3.15440000       0.04280000
C       -1.61170000      -2.05720000       0.17510000
H        0.65530000       1.87600000      -0.42220000
H        0.70580000      -0.41580000      -0.61230000
H        0.44150000       0.05940000       1.07770000
H       -2.09580000       0.00410000       0.57360000
H       -2.80840000      -1.08650000      -1.65400000
H       -1.05520000      -3.87920000      -0.89660000
H       -2.27190000      -2.48100000       0.91840000
