17
Properties=species:S:1:pos:R:3 gdb_74656=T pbc="F F F"
C        0.00530000       1.47300000       0.06270000
C       -0.00870000      -0.01680000      -0.05870000
N       -0.03030000      -0.63770000      -1.16720000
C       -0.04040000      -2.07750000      -1.06270000
C       -0.95030000      -2.72220000       0.02960000
N       -0.03960000      -3.92410000      -0.01270000
C        0.89130000      -2.73720000       0.00190000
C       -0.00820000      -2.05280000       1.06760000
O        0.00460000      -0.63520000       1.15750000
H        0.89740000       1.80210000       0.60530000
H       -0.00600000       1.91860000      -0.93110000
H       -0.86450000       1.81650000       0.63190000
H       -0.05900000      -2.56840000      -2.03450000
H       -2.03690000      -2.80110000       0.04090000
H       -0.02950000      -4.37780000       0.90780000
H        1.97630000      -2.83360000      -0.01950000
H        0.00390000      -2.44860000       2.08500000
