16
Properties=species:S:1:pos:R:3 gdb_53633=T pbc="F F F"
C       -0.11990000       1.43180000      -0.14210000
C       -0.06720000      -0.02080000      -0.06600000
C       -0.00910000      -1.22120000      -0.00440000
C        0.04520000      -2.67400000       0.07430000
N       -1.29050000      -3.24940000      -0.05350000
C       -1.47400000      -4.59470000       0.00860000
N       -0.49390000      -5.41450000       0.11430000
C       -2.86780000      -5.00860000      -0.06820000
N       -3.96220000      -5.37780000      -0.12160000
H        0.87460000       1.84870000      -0.33400000
H       -0.77950000       1.76310000      -0.95120000
H       -0.48950000       1.86830000       0.79190000
H        0.68440000      -3.08820000      -0.71590000
H        0.49750000      -2.99920000       1.02180000
H       -2.08310000      -2.63180000      -0.02840000
H       -0.81810000      -6.37760000       0.12320000
