18
Properties=species:S:1:pos:R:3 gdb_110650=T pbc="F F F"
C        0.01880000       1.28110000      -0.34420000
O       -0.01800000       0.15360000       0.51460000
C       -1.17090000      -0.61080000       0.33710000
C       -1.48220000      -1.66440000      -0.71170000
N       -0.44790000      -2.70070000      -1.08780000
C        0.84680000      -2.45740000      -0.39770000
C       -0.28400000      -3.01840000       0.36920000
C       -1.38430000      -2.01530000       0.77740000
O       -2.39250000      -2.39370000       1.64370000
H        0.93420000       1.82990000      -0.11380000
H        0.02860000       0.98350000      -1.40170000
H       -0.84600000       1.93980000      -0.17490000
H       -2.08690000      -0.03730000       0.51820000
H       -2.33470000      -1.57530000      -1.37430000
H        1.60170000      -3.16620000      -0.72960000
H        1.19230000      -1.45180000      -0.21120000
H       -0.33940000      -4.04680000       0.71250000
H       -2.14330000      -2.12140000       2.53460000
