21
Properties=species:S:1:pos:R:3 gdb_91813=T pbc="F F F"
C        0.68690000       1.41150000      -0.38870000
C        0.01930000       0.09990000       0.02150000
O        0.06220000      -0.83180000      -1.08340000
C        0.88430000      -1.91760000      -0.76360000
C        2.33910000      -1.65310000      -0.40960000
C        1.30970000      -1.86040000       0.67020000
O        1.49210000      -2.97570000       1.48830000
C        0.61330000      -0.63730000       1.26370000
C        1.48150000       0.19110000       2.21240000
H        1.76010000       1.29960000      -0.56360000
H        0.23170000       1.76670000      -1.31730000
H        0.54170000       2.17880000       0.37820000
H       -1.04230000       0.31080000       0.19880000
H        0.60620000      -2.83210000      -1.27560000
H        3.01950000      -2.48550000      -0.55470000
H        2.76750000      -0.67300000      -0.58350000
H        0.62180000      -3.31080000       1.73480000
H       -0.23060000      -1.03620000       1.84480000
H        2.34670000       0.62070000       1.70020000
H        0.91680000       1.01010000       2.66890000
H        1.85510000      -0.44960000       3.01690000
