16
Properties=species:S:1:pos:R:3 gdb_10817=T pbc="F F F"
C       -0.08790000       1.52630000      -0.02460000
C        0.00580000       0.00270000       0.01330000
O        0.62280000      -0.40430000      -1.19570000
C        0.92480000      -1.78400000      -1.25490000
C        1.82040000      -2.24640000      -0.10670000
O        2.55490000      -3.20610000      -0.21480000
C        1.64840000      -1.49170000       1.14880000
C        0.76120000      -0.49270000       1.21910000
H        0.91270000       1.96670000      -0.04670000
H       -0.62550000       1.84000000      -0.92240000
H       -0.62070000       1.90240000       0.85340000
H       -1.02100000      -0.41290000       0.06160000
H        0.00550000      -2.39790000      -1.23730000
H        1.43210000      -1.96720000      -2.20440000
H        2.21770000      -1.83280000       2.00770000
H        0.55070000       0.00410000       2.16380000
