19
Properties=species:S:1:pos:R:3 gdb_41632=T pbc="F F F"
C        0.26760000       1.50320000      -0.45680000
O        1.64260000       1.39560000      -0.03520000
C        1.42010000       0.08510000       0.52570000
C       -0.02830000       0.04810000      -0.04380000
C       -0.06590000      -1.01590000      -1.16430000
C        1.37080000      -1.53290000      -1.34260000
C        2.40380000      -0.76220000      -2.20240000
O        3.25850000      -0.54420000      -1.05890000
C        2.24290000      -1.03010000      -0.16590000
H       -0.27330000       2.26380000       0.12100000
H        0.17740000       1.73900000      -1.52480000
H        1.53930000       0.09240000       1.61520000
H       -0.84530000      -0.06860000       0.66920000
H       -0.71950000      -1.84310000      -0.86940000
H       -0.47970000      -0.60980000      -2.09420000
H        1.40880000      -2.60850000      -1.52050000
H        2.91280000      -1.33870000      -2.98280000
H        2.04400000       0.18280000      -2.62840000
H        2.64240000      -1.75340000       0.55330000
