18
Properties=species:S:1:pos:R:3 gdb_31864=T pbc="F F F"
N        0.07050000       1.41350000       0.19780000
C        0.01580000       0.02340000       0.05870000
C       -1.18980000      -0.66940000       0.22550000
C       -1.22440000      -2.05610000       0.13890000
C       -0.06850000      -2.79790000      -0.10380000
C       -0.10510000      -4.30470000      -0.14450000
O        0.80930000      -4.77360000      -1.12900000
C        1.13240000      -2.10410000      -0.27280000
C        1.17740000      -0.71900000      -0.19740000
H        0.83700000       1.85290000      -0.29150000
H       -0.80060000       1.88800000       0.00760000
H       -2.10420000      -0.11450000       0.41570000
H       -2.17520000      -2.56860000       0.25870000
H        0.16070000      -4.71380000       0.84520000
H       -1.13200000      -4.64040000      -0.36050000
H        0.91070000      -5.72230000      -1.00910000
H        2.03650000      -2.66320000      -0.48500000
H        2.12150000      -0.19940000      -0.33630000
