21
Properties=species:S:1:pos:R:3 gdb_75488=T pbc="F F F"
C        0.08130000       1.48940000       0.06470000
C        0.00420000      -0.01010000      -0.00660000
C       -0.05960000      -0.68750000      -1.15630000
C       -0.16920000      -2.18690000      -1.19260000
O       -0.77990000      -2.73870000      -0.03240000
C       -0.39010000      -2.21780000       1.20820000
C       -1.24730000      -2.83060000       2.28630000
C        1.03910000      -1.85940000       1.50100000
C       -0.00800000      -0.75600000       1.27990000
H        0.98320000       1.81310000       0.59940000
H        0.09210000       1.93970000      -0.93150000
H       -0.77290000       1.90230000       0.61650000
H       -0.03300000      -0.17000000      -2.11110000
H       -0.80310000      -2.50490000      -2.02770000
H        0.81830000      -2.65310000      -1.35760000
H       -1.10750000      -3.91610000       2.31560000
H       -0.98890000      -2.42220000       3.26680000
H       -2.30510000      -2.62910000       2.09090000
H        1.40730000      -2.02090000       2.50870000
H        1.78810000      -1.97520000       0.72590000
H       -0.31950000      -0.19400000       2.15570000
