25
Properties=species:S:1:pos:R:3 gdb_120030=T pbc="F F F"
C       -0.07270000       1.58310000       0.15190000
C       -0.02120000       0.05510000       0.07580000
C        0.67480000      -0.46050000      -1.19260000
C        0.73030000      -1.98810000      -1.26890000
C        1.41340000      -2.59770000      -2.54370000
C        1.46670000      -1.80980000      -3.84510000
C        2.72060000      -2.77930000      -1.72450000
C        1.87680000      -2.65740000      -0.43440000
O        2.42320000      -2.01710000       0.69530000
H        0.93450000       2.01580000       0.16150000
H       -0.60290000       2.00700000      -0.70860000
H       -0.58560000       1.92090000       1.05790000
H        0.49040000      -0.34970000       0.95540000
H       -1.04240000      -0.34760000       0.10510000
H        0.14410000      -0.07480000      -2.07300000
H        1.68560000      -0.02900000      -1.25400000
H       -0.27030000      -2.38200000      -1.05970000
H        0.97070000      -3.58050000      -2.74050000
H        1.91460000      -0.82080000      -3.70390000
H        2.06830000      -2.33990000      -4.59200000
H        0.46680000      -1.66560000      -4.26980000
H        3.31430000      -3.68500000      -1.87180000
H        3.38110000      -1.91080000      -1.84180000
H        1.55900000      -3.64190000      -0.07920000
H        2.82480000      -1.19190000       0.40490000
