18
Properties=species:S:1:pos:R:3 gdb_50935=T pbc="F F F"
O       -0.67830000       0.93060000       0.85370000
C        0.09560000       0.99980000      -0.06510000
C        1.30600000       1.90840000      -0.11180000
C        1.23830000       2.90840000      -1.28700000
C        0.09280000       3.90100000      -1.08310000
O       -0.34960000       4.60630000      -1.95320000
C        2.58060000       3.62050000      -1.47660000
C        2.72690000       4.85980000      -2.27320000
N        2.91330000       4.89040000      -0.80890000
H       -0.04450000       0.37850000      -0.98110000
H        1.39880000       2.42790000       0.84680000
H        2.19270000       1.27490000      -0.24410000
H        1.02160000       2.36750000      -2.21860000
H       -0.31910000       3.94520000      -0.04990000
H        3.41450000       2.91980000      -1.47840000
H        3.63340000       5.02010000      -2.84990000
H        1.82680000       5.29940000      -2.69070000
H        2.08980000       5.29720000      -0.37000000
