14
Properties=species:S:1:pos:R:3 gdb_133031=T pbc="F F F"
C        0.09450000       1.42840000       0.11540000
N        0.14920000      -0.02360000       0.10530000
C        0.43770000      -0.61210000      -0.97190000
O        0.70570000       0.07050000      -2.14970000
C        1.01090000      -0.62310000      -3.27980000
C        1.06330000      -1.96040000      -3.29820000
N        0.80780000      -2.71870000      -2.15850000
C        0.52270000      -2.07500000      -1.10210000
F        0.27130000      -2.73710000       0.00770000
H        1.05820000       1.87260000      -0.16720000
H       -0.65390000       1.81100000      -0.59120000
H       -0.16630000       1.76840000       1.11920000
H        1.19640000       0.02950000      -4.12210000
H        1.30690000      -2.50200000      -4.20220000
