15
Properties=species:S:1:pos:R:3 gdb_31943=T pbc="F F F"
O        0.40840000       0.89320000      -0.71210000
C       -0.03910000       0.03490000       0.31700000
C       -1.44640000      -0.42250000       0.08900000
C       -2.23390000      -0.43910000      -1.03080000
C       -3.47740000      -0.99220000      -0.62300000
C       -3.36350000      -1.27370000       0.71460000
O       -2.11560000      -0.91820000       1.15090000
C       -4.31140000      -1.84440000       1.65350000
O       -4.10680000      -2.05100000       2.82910000
H       -0.13310000       1.68940000      -0.68810000
H        0.64370000      -0.82340000       0.31170000
H        0.03390000       0.48980000       1.31650000
H       -1.94230000      -0.10720000      -2.01390000
H       -4.35200000      -1.16490000      -1.23180000
H       -5.28570000      -2.08500000       1.17350000
