21
Properties=species:S:1:pos:R:3 gdb_104000=T pbc="F F F"
C       -0.00080000       1.52840000       0.16200000
C       -0.10390000       0.01960000      -0.08820000
C        0.71540000      -0.46340000      -1.28140000
O        0.26740000       0.08640000      -2.50930000
C        2.29290000      -0.43930000      -1.15330000
C        2.27630000      -1.95630000      -1.35450000
O        1.46050000      -2.50600000      -0.30400000
C        0.81070000      -1.99990000      -1.47840000
C       -0.13300000      -2.87330000      -2.23500000
H        1.03560000       1.83900000       0.33440000
H       -0.39100000       2.10870000      -0.68270000
H       -0.58320000       1.81900000       1.04110000
H        0.23370000      -0.53150000       0.79470000
H       -1.15300000      -0.25250000      -0.25960000
H        0.37220000       1.04250000      -2.46760000
H        2.73660000       0.10270000      -1.99160000
H        2.72420000      -0.09880000      -0.20830000
H        3.03870000      -2.60420000      -1.77280000
H       -1.07490000      -2.99750000      -1.68880000
H       -0.36030000      -2.42410000      -3.20510000
H        0.30330000      -3.86390000      -2.38930000
