17
Properties=species:S:1:pos:R:3 gdb_124927=T pbc="F F F"
C        0.05310000       1.53380000       0.01700000
C       -0.01800000       0.02780000      -0.03120000
C       -1.16810000      -0.68520000       0.02430000
C       -2.54150000      -0.10100000       0.14140000
C       -1.09290000      -2.14490000      -0.03260000
N       -2.12870000      -2.88100000       0.01420000
O        0.16010000      -2.72800000      -0.14120000
N        1.33900000      -1.99610000      -0.19810000
C        1.21640000      -0.71810000      -0.14430000
H        1.08830000       1.87840000      -0.04280000
H       -0.49700000       1.98910000      -0.81290000
H       -0.37470000       1.92700000       0.94480000
H       -3.16040000      -0.42480000      -0.70160000
H       -3.03850000      -0.48650000       1.03750000
H       -2.52500000       0.98880000       0.17880000
H       -1.87170000      -3.86760000      -0.03880000
H        2.16550000      -0.19050000      -0.19230000
