18
Properties=species:S:1:pos:R:3 gdb_17062=T pbc="F F F"
C        0.03810000       1.32160000      -0.20150000
O       -0.04170000       0.03820000       0.37700000
C       -1.29130000      -0.56690000       0.19960000
C       -1.58050000      -1.37430000      -1.11500000
C       -0.54000000      -2.41460000      -0.60770000
C       -1.38390000      -2.04620000       0.65230000
C       -2.62280000      -2.16960000      -0.26540000
O       -3.79500000      -1.54330000       0.19480000
H        1.02000000       1.73100000       0.04780000
H       -0.06420000       1.28790000      -1.29670000
H       -0.73850000       1.99370000       0.19540000
H       -2.09670000       0.09440000       0.53380000
H       -1.70400000      -0.99600000      -2.13130000
H       -0.64410000      -3.43620000      -0.98410000
H        0.49630000      -2.08580000      -0.59390000
H       -1.27570000      -2.43220000       1.66590000
H       -2.82340000      -3.18610000      -0.62730000
H       -4.43540000      -1.54300000      -0.52310000
