17
Properties=species:S:1:pos:R:3 gdb_66782=T pbc="F F F"
C       -0.00740000       1.45560000       0.00830000
C       -0.01760000      -0.04730000       0.04940000
C       -1.19840000      -0.85250000      -0.46420000
C       -0.70430000      -2.07000000      -1.14060000
C        0.72850000      -2.15240000      -0.59460000
C        0.11470000      -2.25800000       0.81380000
C        0.66480000      -0.85430000       1.08810000
N        1.25300000      -0.74900000      -0.30690000
N       -1.30260000      -2.15650000       0.24720000
H        0.94520000       1.84080000       0.37930000
H       -0.13930000       1.81880000      -1.01630000
H       -0.81230000       1.86960000       0.62470000
H       -2.13710000      -0.37810000      -0.72390000
H       -1.14440000      -2.56030000      -2.00190000
H        1.46810000      -2.82920000      -1.01390000
H        0.25920000      -3.08260000       1.50660000
H        1.17210000      -0.47380000       1.96860000
