19
Properties=species:S:1:pos:R:3 gdb_111930=T pbc="F F F"
C        0.17550000       1.33400000       0.16630000
O       -0.00690000      -0.05240000      -0.01240000
C        0.55610000      -0.54480000      -1.21000000
C        2.04610000      -0.87490000      -0.97660000
C        2.29780000      -2.11400000      -1.43600000
C        2.15220000      -3.27080000      -0.44240000
C        0.69000000      -3.29250000      -1.03100000
C        0.04440000      -1.94730000      -1.54740000
C        1.13400000      -2.63250000      -2.30140000
H        1.23990000       1.60760000       0.22460000
H       -0.28040000       1.91030000      -0.65390000
H       -0.30990000       1.60760000       1.10630000
H        0.31650000       0.14760000      -2.03590000
H        2.50910000      -0.47950000      -0.07640000
H        2.64360000      -4.21590000      -0.70180000
H        2.30880000      -3.03750000       0.61430000
H        0.02940000      -4.15220000      -0.94590000
H       -0.99470000      -2.07010000      -1.84720000
H        1.14620000      -2.98740000      -3.32290000
