21
Properties=species:S:1:pos:R:3 gdb_40273=T pbc="F F F"
C       -0.37460000       1.51940000       0.07410000
C        1.10520000       1.27200000       0.06120000
C        0.14030000       0.09370000       0.00020000
C       -0.04500000      -0.71520000       1.27040000
O        0.86650000      -1.78180000       1.44350000
C        0.53400000      -2.95170000       0.72300000
C        0.96070000      -2.92570000      -0.74570000
C        0.34670000      -1.86170000      -1.62060000
C        0.02350000      -0.60370000      -1.30940000
H       -0.83570000       1.84410000       1.00130000
H       -0.83630000       1.93270000      -0.81640000
H        1.65920000       1.51390000      -0.83870000
H        1.66410000       1.41030000       0.98070000
H        0.09530000      -0.05730000       2.13540000
H       -1.07760000      -1.10090000       1.30600000
H        1.05100000      -3.77480000       1.22860000
H       -0.54960000      -3.14130000       0.79290000
H        2.05580000      -2.82660000      -0.78340000
H        0.73710000      -3.91310000      -1.16990000
H        0.21070000      -2.15360000      -2.66020000
H       -0.34140000       0.02470000      -2.12120000
