19
Properties=species:S:1:pos:R:3 gdb_41843=T pbc="F F F"
C       -0.06240000       1.53890000      -0.13730000
O        1.25090000       2.03330000       0.13510000
C        2.09040000       0.93600000       0.47780000
C        1.99190000       0.54950000       1.99010000
C        1.11760000      -0.71290000       1.92780000
C        1.73860000      -1.47460000       0.74790000
C        1.49120000      -0.31430000      -0.22360000
C        0.00590000       0.02420000       0.04220000
O       -0.18050000      -0.34910000       1.42390000
H       -0.78960000       1.98240000       0.55210000
H       -0.34280000       1.80520000      -1.16560000
H        3.10480000       1.19740000       0.17040000
H        2.97480000       0.32340000       2.41690000
H        1.53740000       1.35700000       2.56730000
H        0.97470000      -1.25020000       2.86520000
H        2.79660000      -1.71220000       0.88750000
H        1.18890000      -2.38360000       0.49180000
H        1.75860000      -0.44100000      -1.27190000
H       -0.72390000      -0.51230000      -0.57180000
