18
Properties=species:S:1:pos:R:3 gdb_33834=T pbc="F F F"
N        0.09950000      -1.14420000      -0.07160000
C        0.06050000       0.01230000      -0.02380000
C        0.00420000       1.43350000       0.05290000
C        0.27160000       2.32050000      -1.14520000
C        1.17240000       2.45140000       0.04290000
C        0.48070000       3.23120000       1.14330000
C        1.14300000       3.84070000       2.33900000
C        0.44720000       4.72120000       1.32210000
C       -0.69450000       2.23080000       1.17470000
H        0.69290000       1.81050000      -2.00460000
H       -0.44060000       3.10640000      -1.38240000
H        2.23140000       2.22880000      -0.00790000
H        0.67400000       3.70470000       3.30820000
H        2.22790000       3.85670000       2.36810000
H        1.06100000       5.33190000       0.66800000
H       -0.49550000       5.17780000       1.60590000
H       -1.68940000       2.61190000       0.92440000
H       -0.74670000       1.67110000       2.11090000
