21
Properties=species:S:1:pos:R:3 gdb_123234=T pbc="F F F"
C       -0.14150000       1.34790000      -0.20160000
O       -0.00320000      -0.04660000      -0.07160000
C        0.66480000      -0.63710000      -1.16290000
C        0.75880000      -2.13710000      -0.91480000
C        1.47350000      -2.87610000      -2.04990000
C        1.57060000      -4.37380000      -1.78510000
O        2.31630000      -5.02340000      -2.82350000
C        1.64530000      -5.78610000      -3.70480000
O        2.17440000      -6.33360000      -4.62440000
H        0.83590000       1.85220000      -0.26590000
H       -0.72530000       1.61990000      -1.09550000
H       -0.66680000       1.70920000       0.68580000
H        0.12100000      -0.43640000      -2.10310000
H        1.67390000      -0.20370000      -1.27920000
H        1.28410000      -2.29900000       0.03430000
H       -0.25620000      -2.53090000      -0.78150000
H        0.94570000      -2.71780000      -2.99910000
H        2.48710000      -2.48090000      -2.18590000
H        2.10480000      -4.57390000      -0.85120000
H        0.57200000      -4.82410000      -1.70420000
H        0.56230000      -5.85210000      -3.47660000
