18
Properties=species:S:1:pos:R:3 gdb_72980=T pbc="F F F"
N       -0.05860000       1.46700000       0.04900000
C       -0.04820000       0.05150000      -0.03570000
C        0.65110000      -0.82230000      -1.09820000
C       -0.54790000      -1.82300000      -1.05030000
C       -1.23930000      -0.92170000      -0.02740000
C       -0.33450000      -0.77380000       1.20430000
N        0.58310000      -1.76060000       1.72070000
C       -0.97370000      -0.03650000       2.27920000
N       -1.49160000       0.49260000       3.16700000
H        0.76470000       1.82860000       0.51900000
H       -0.11880000       1.89640000      -0.86770000
H        0.69600000      -0.29480000      -2.05480000
H        1.65650000      -1.19970000      -0.87740000
H       -1.08440000      -1.88720000      -1.99820000
H       -0.31840000      -2.83680000      -0.70940000
H       -2.29830000      -0.70790000       0.04480000
H        0.09240000      -2.59570000       2.02320000
H        1.27100000      -2.03080000       1.02970000
