20
Properties=species:S:1:pos:R:3 gdb_91923=T pbc="F F F"
O       -0.09470000       1.45120000       0.01880000
C        0.03400000       0.03660000       0.00900000
C        0.74990000      -0.50620000       1.24730000
C        0.91240000      -2.02600000       1.13250000
O        1.34840000      -2.62760000       2.34750000
C       -0.37880000      -2.71450000       0.73190000
C       -1.63420000      -2.47700000       1.48710000
N       -1.49680000      -1.97520000       0.12180000
C       -1.39090000      -0.51840000      -0.06250000
H        0.78780000       1.83330000      -0.01840000
H        0.58690000      -0.28890000      -0.88880000
H        1.73980000      -0.04050000       1.34980000
H        0.18080000      -0.25060000       2.14770000
H        1.64840000      -2.22750000       0.33610000
H        2.23250000      -2.29780000       2.54060000
H       -0.22680000      -3.70020000       0.29700000
H       -2.34890000      -3.28470000       1.62380000
H       -1.60550000      -1.76020000       2.30560000
H       -1.98670000       0.00500000       0.69520000
H       -1.82190000      -0.26690000      -1.03690000
