15
Properties=species:S:1:pos:R:3 gdb_64842=T pbc="F F F"
C        0.05000000       1.66640000      -0.08910000
C        0.04740000       0.14110000      -0.07370000
O        0.83110000      -0.38340000      -1.14900000
C        1.79070000      -1.25550000      -0.67200000
O        2.55420000      -1.82820000      -1.39150000
C        1.64810000      -1.29190000       0.80470000
C        0.65610000      -0.47870000       1.16190000
C       -1.37710000      -0.43000000      -0.23180000
O       -2.36550000       0.12000000       0.16690000
H        1.05340000       2.04830000       0.11110000
H       -0.28010000       2.02750000      -1.06600000
H       -0.64310000       2.03830000       0.66840000
H        2.29580000      -1.88980000       1.42850000
H        0.28310000      -0.26420000       2.15480000
H       -1.39270000      -1.41940000      -0.73630000
