13
Properties=species:S:1:pos:R:3 gdb_130608=T pbc="F F F"
O       -0.02410000      -0.04840000       0.00360000
C        0.00680000       1.17160000       0.00970000
C       -1.22210000       1.98670000       0.02990000
N       -1.29380000       3.28240000       0.03760000
N       -0.12160000       3.94110000       0.02570000
C        1.09640000       3.35130000       0.00670000
C        1.23280000       1.98950000      -0.00220000
C        2.51080000       1.38050000      -0.02210000
C        3.59280000       0.85260000      -0.03900000
H       -2.16910000       1.45560000       0.03950000
H       -0.21170000       4.94410000       0.03210000
H        1.94510000       4.02520000      -0.00090000
H        4.54140000       0.37570000      -0.05410000
