19
Properties=species:S:1:pos:R:3 gdb_125843=T pbc="F F F"
C       -0.37010000       1.66240000      -0.04370000
C        0.07290000       0.21370000       0.03870000
C        0.83450000      -0.46800000      -1.19670000
C        1.08610000       0.36760000      -2.44640000
C        1.98640000      -0.65590000      -0.21110000
C        3.17000000      -1.12090000       0.33390000
C        3.06820000      -0.69930000       1.68920000
N        1.92530000      -0.05030000       1.97510000
N        1.32540000      -0.03830000       0.77750000
H        0.43690000       2.31160000      -0.39190000
H       -1.21980000       1.76050000      -0.72690000
H       -0.68750000       2.01450000       0.94230000
H       -0.74260000      -0.41660000       0.40960000
H        0.35480000      -1.41280000      -1.47240000
H        1.59030000       1.30860000      -2.21160000
H        1.72370000      -0.18430000      -3.14420000
H        0.14800000       0.59650000      -2.96260000
H        3.97950000      -1.66150000      -0.12690000
H        3.79910000      -0.84190000       2.47280000
