16
Properties=species:S:1:pos:R:3 gdb_13555=T pbc="F F F"
O       -0.46910000       1.23690000       0.08840000
C       -0.07580000      -0.14530000       0.03480000
C        0.74140000      -0.40760000      -1.15070000
C        1.43730000      -0.59820000      -2.11210000
C        0.62480000      -0.60700000       1.31200000
C        1.48310000       0.34820000       2.12410000
C        0.15200000      -0.12240000       2.65990000
O       -0.93710000       0.73220000       2.80270000
H        0.29840000       1.76740000      -0.15330000
H       -1.02310000      -0.69110000      -0.05730000
H        2.04130000      -0.77450000      -2.96800000
H        0.96270000      -1.63730000       1.24530000
H        2.40520000      -0.02150000       2.55920000
H        1.52780000       1.38340000       1.80040000
H        0.16890000      -0.83950000       3.47480000
H       -1.01110000       1.24330000       1.98380000
