18
Properties=species:S:1:pos:R:3 gdb_102224=T pbc="F F F"
C       -0.84040000       1.28340000       0.70540000
N       -0.54450000      -0.11660000       0.45370000
C        0.51740000      -0.63380000       0.94640000
C        1.53740000       0.13020000       1.79740000
O        2.53890000      -0.68600000       2.37730000
N        0.86620000      -1.94740000       0.74660000
C        0.23060000      -2.97960000       0.01770000
N       -0.95570000      -2.63480000      -0.53020000
O        0.76390000      -4.07000000      -0.05410000
H       -0.04440000       1.96080000       0.36360000
H       -1.75120000       1.55370000       0.16570000
H       -1.01870000       1.49610000       1.77020000
H        2.05570000       0.84890000       1.15240000
H        1.00030000       0.71430000       2.55500000
H        2.17760000      -1.09260000       3.17170000
H        1.75730000      -2.22550000       1.13220000
H       -1.27130000      -1.67120000      -0.45550000
H       -1.41500000      -3.32490000      -1.09730000
