15
Properties=species:S:1:pos:R:3 gdb_47188=T pbc="F F F"
N        0.14550000       0.94820000      -0.95550000
C       -0.00790000       0.10380000      -0.02410000
O        0.97950000      -0.07310000       0.94060000
C        1.50730000      -1.33150000       1.23860000
O        2.65160000      -1.59280000       0.99050000
N        0.62920000      -2.14680000       1.87170000
C       -0.71730000      -1.78440000       2.28600000
C       -1.62200000      -1.41130000       1.13640000
C       -1.27780000      -0.61430000       0.12340000
H        1.07320000       1.37180000      -0.89610000
H        0.99930000      -3.04750000       2.12760000
H       -1.13000000      -2.64850000       2.81100000
H       -0.68350000      -0.96170000       3.01460000
H       -2.62640000      -1.82410000       1.15670000
H       -1.97990000      -0.39960000      -0.67420000
