20
Properties=species:S:1:pos:R:3 gdb_72912=T pbc="F F F"
O        0.00670000       1.29080000      -0.32810000
C        0.03290000      -0.07490000       0.03930000
C        0.35900000      -1.03650000      -1.14980000
C       -1.12630000      -1.49970000      -1.17210000
C       -1.40170000      -0.67700000       0.12420000
C       -1.44510000      -1.40640000       1.45370000
C       -0.45910000      -2.48710000       1.72040000
N       -0.21890000      -1.14120000       2.25200000
C        0.68320000      -0.31730000       1.42570000
H        0.90580000       1.55750000      -0.54910000
H        0.69320000      -0.51230000      -2.04860000
H        1.08340000      -1.82090000      -0.91400000
H       -1.67580000      -1.12560000      -2.03810000
H       -1.29920000      -2.57450000      -1.09090000
H       -2.20210000       0.06070000       0.04870000
H       -2.37840000      -1.39980000       2.00950000
H       -0.67390000      -3.24030000       2.47390000
H        0.15880000      -2.84730000       0.90090000
H        1.67250000      -0.78490000       1.36450000
H        0.79250000       0.65480000       1.91740000
