15
Properties=species:S:1:pos:R:3 gdb_56410=T pbc="F F F"
O       -0.61310000       0.99000000       0.16630000
C        0.10770000      -0.19350000      -0.12640000
C        1.06180000       0.02340000      -1.24330000
N        1.79520000       0.21720000      -2.11420000
C        0.80600000      -0.76080000       1.02880000
C        1.37140000      -1.19470000       2.00100000
C        2.05450000      -1.73580000       3.13980000
C        1.38290000      -1.72360000       4.47720000
N        1.57130000      -2.98910000       3.76930000
H       -0.00000000       1.61730000       0.56840000
H       -0.64920000      -0.90400000      -0.48170000
H        3.13810000      -1.66090000       3.10820000
H        1.99480000      -1.59690000       5.36540000
H        0.38910000      -1.28960000       4.53270000
H        0.70100000      -3.27080000       3.32400000
