16
Properties=species:S:1:pos:R:3 gdb_797=T pbc="F F F"
C        0.51780000       0.72870000       0.33270000
O        0.88100000       0.42740000      -0.99940000
C        0.06550000      -0.56690000      -1.59290000
C        0.35000000      -1.95330000      -1.05860000
C        1.75520000      -2.47910000      -1.13310000
N       -0.65760000      -2.58010000      -0.58300000
O       -0.32210000      -3.87260000      -0.15390000
H       -0.51570000       1.10290000       0.39210000
H        0.60370000      -0.14310000       0.99630000
H        1.19930000       1.50880000       0.68000000
H       -1.00300000      -0.34590000      -1.46340000
H        0.30170000      -0.53240000      -2.66350000
H        2.46020000      -1.64670000      -1.17750000
H        1.97910000      -3.11350000      -0.27350000
H        1.88730000      -3.09250000      -2.03280000
H       -1.15930000      -4.19160000       0.19930000
