22
Properties=species:S:1:pos:R:3 gdb_57783=T pbc="F F F"
C       -0.08630000       1.59140000       0.04210000
C        0.02690000       0.05590000      -0.03950000
C        0.71840000      -0.38630000      -1.34480000
C        0.71300000      -0.48620000       1.13390000
C        1.28130000      -0.92420000       2.10300000
C        1.99170000      -1.43410000       3.24400000
N        1.20250000      -2.09490000       4.31730000
C        2.13880000      -2.89980000       3.52600000
C        1.54420000      -3.95990000       2.63510000
H        0.90700000       2.05120000       0.04150000
H       -0.64310000       1.97720000      -0.81790000
H       -0.60140000       1.89930000       0.95560000
H       -0.99300000      -0.35400000      -0.04630000
H        1.74030000       0.00330000      -1.39010000
H        0.76870000      -1.47610000      -1.41370000
H        0.16860000      -0.00870000      -2.21290000
H        2.82400000      -0.81110000       3.56720000
H        1.60590000      -1.85950000       5.22060000
H        3.07820000      -3.17640000       4.00440000
H        0.63220000      -3.59190000       2.16040000
H        2.25250000      -4.24830000       1.85110000
H        1.29500000      -4.85440000       3.21550000
