14
Properties=species:S:1:pos:R:3 gdb_123677=T pbc="F F F"
C       -0.06030000       1.58970000      -0.05580000
C        1.48070000       1.34990000       0.01780000
O        1.17860000       0.17600000       0.86490000
C       -0.00900000       0.03140000       0.00400000
C        0.67550000      -0.28110000      -1.31500000
N        0.64900000      -1.05010000      -2.35590000
O        1.76400000      -0.61330000      -3.11230000
C        2.39210000       0.40340000      -2.45690000
C        1.74570000       0.66430000      -1.30730000
H       -0.44970000       2.00990000       0.87280000
H       -0.48040000       2.07650000      -0.93830000
H        2.18640000       2.05100000       0.45510000
H       -0.79600000      -0.59960000       0.40710000
H        3.26000000       0.79880000      -2.96030000
