20
Properties=species:S:1:pos:R:3 gdb_127424=T pbc="F F F"
C       -0.02710000       1.39150000      -0.05420000
N       -0.00600000      -0.04950000       0.04280000
N       -0.01910000      -0.79420000      -1.08600000
C        0.02060000      -2.05990000      -0.67190000
C        0.01600000      -3.19160000      -1.64990000
C        0.04810000      -2.12710000       0.74340000
N        0.06090000      -3.26580000       1.59340000
C        0.02010000      -0.81020000       1.17220000
C        0.01210000      -0.25720000       2.55620000
H        0.86170000       1.83500000       0.40810000
H       -0.04320000       1.64160000      -1.11460000
H       -0.91710000       1.81180000       0.42730000
H        0.84620000      -3.88450000      -1.46830000
H       -0.91050000      -3.77730000      -1.59770000
H        0.10850000      -2.80290000      -2.66620000
H       -0.28950000      -4.08360000       1.10780000
H        0.99770000      -3.49140000       1.91430000
H        0.96470000       0.21400000       2.83020000
H       -0.77310000       0.49500000       2.69350000
H       -0.17290000      -1.07470000       3.25760000
