19
Properties=species:S:1:pos:R:3 gdb_62500=T pbc="F F F"
C       -0.10250000       1.54990000       0.00660000
C        0.00840000       0.04020000       0.01810000
C       -1.19660000      -0.68650000      -0.54670000
C        1.36820000      -0.59830000      -0.23060000
C        2.54040000       0.17870000      -0.49320000
C        3.53110000       0.81740000      -0.73320000
C        0.73020000      -0.63440000       1.17690000
C        1.29050000       0.10810000       2.26390000
C        1.75100000       0.71700000       3.19350000
H        0.78710000       2.02520000       0.42170000
H       -0.23690000       1.91350000      -1.01790000
H       -0.96790000       1.87210000       0.59590000
H       -1.36910000      -0.39820000      -1.58980000
H       -1.06710000      -1.77290000      -0.51580000
H       -2.09990000      -0.43940000       0.02220000
H        1.34380000      -1.55610000      -0.74390000
H        4.40660000       1.38160000      -0.93840000
H        0.34680000      -1.61250000       1.45560000
H        2.16390000       1.25590000       4.00960000
