21
Properties=species:S:1:pos:R:3 gdb_91336=T pbc="F F F"
O       -0.17100000       1.46260000       0.16270000
C        0.01120000       0.05920000       0.01350000
C        0.83400000      -0.56270000       1.16770000
C        0.45290000      -2.03560000       1.38880000
C       -0.01450000      -2.70650000       0.05960000
C       -1.38690000      -2.04560000       0.33740000
O       -2.49520000      -2.76650000      -0.14150000
C       -1.02840000      -2.11460000       1.84970000
C       -1.38710000      -0.57660000      -0.11590000
H        0.69810000       1.87640000       0.15810000
H        0.54990000      -0.13800000      -0.92480000
H        1.90400000      -0.46310000       0.94610000
H        0.64040000       0.00930000       2.08320000
H        1.19630000      -2.56490000       1.98710000
H        0.50510000      -2.47830000      -0.87470000
H       -0.09650000      -3.79010000       0.17300000
H       -3.28810000      -2.24200000       0.01600000
H       -1.27790000      -3.09880000       2.25450000
H       -1.40550000      -1.32900000       2.51230000
H       -2.09180000       0.00230000       0.49480000
H       -1.72500000      -0.51550000      -1.15570000
