22
Properties=species:S:1:pos:R:3 gdb_96098=T pbc="F F F"
C        0.00290000       1.55500000      -0.00320000
C        0.01970000       0.02490000       0.00270000
C        0.70250000      -0.53090000      -1.25510000
O        0.72300000      -1.94910000      -1.27770000
C        1.43720000      -2.48880000      -0.18030000
C        0.83750000      -2.05490000       1.14400000
C       -0.13750000      -2.95240000       1.81090000
N        1.22100000      -2.77210000       2.36760000
C        0.72090000      -0.54670000       1.24890000
H        1.02090000       1.96180000      -0.01310000
H       -0.52200000       1.94650000      -0.88120000
H       -0.49950000       1.94500000       0.88780000
H       -1.01520000      -0.34330000      -0.00630000
H        0.16910000      -0.22230000      -2.15950000
H        1.73320000      -0.13590000      -1.31960000
H        1.40560000      -3.57810000      -0.29000000
H        2.49500000      -2.17040000      -0.22530000
H       -0.93460000      -2.53330000       2.41930000
H       -0.38520000      -3.89490000       1.32920000
H        1.79650000      -3.58010000       2.13590000
H        1.73080000      -0.11730000       1.32490000
H        0.19100000      -0.26790000       2.16540000
