18
Properties=species:S:1:pos:R:3 gdb_92814=T pbc="F F F"
C       -0.16250000       1.61050000      -0.08010000
C        0.01990000       0.08900000      -0.02120000
C        0.72500000      -0.47610000      -1.31550000
N        2.09240000       0.06770000      -1.24760000
C        2.59490000      -0.30190000      -0.15600000
O        3.14810000       0.59660000       0.76670000
C        2.26180000      -0.04510000       1.73660000
C        0.81950000      -0.40180000       1.21720000
C        2.03030000      -1.24620000       0.90910000
H        0.80220000       2.11180000      -0.18770000
H       -0.79240000       1.89590000      -0.92910000
H       -0.64240000       1.97830000       0.83270000
H       -0.97200000      -0.37780000       0.05160000
H        0.67190000      -1.57370000      -1.30380000
H        0.23820000      -0.11880000      -2.22580000
H        2.50960000       0.09620000       2.78060000
H        0.20260000      -0.75210000       2.04370000
H        2.19680000      -2.30360000       1.05910000
