20
Properties=species:S:1:pos:R:3 gdb_90623=T pbc="F F F"
C        0.11970000       1.56850000       0.06280000
C       -0.04320000       0.06070000       0.08850000
O        0.78990000      -0.58910000      -0.92600000
C        1.60480000      -1.21530000       0.08850000
C        0.71680000      -0.67860000       1.20790000
N        0.30130000      -2.07450000       1.63580000
C       -0.25950000      -2.79790000       0.46850000
C        1.20100000      -2.64260000       0.52660000
C        2.17980000      -3.75280000       0.76610000
H        1.16140000       1.85500000       0.23830000
H       -0.18380000       1.96410000      -0.91110000
H       -0.50480000       2.03190000       0.83450000
H       -1.09880000      -0.21230000      -0.03260000
H        2.67310000      -1.02460000      -0.03640000
H        1.06480000      -0.10200000       2.06360000
H       -0.66540000      -3.76280000       0.75810000
H       -0.83280000      -2.27930000      -0.29170000
H        2.49840000      -4.20000000      -0.18310000
H        3.07490000      -3.39270000       1.28540000
H        1.72820000      -4.53790000       1.37910000
