17
Properties=species:S:1:pos:R:3 gdb_98520=T pbc="F F F"
O        0.04630000       1.45960000      -0.13850000
C       -0.00810000       0.08670000      -0.38960000
C       -1.27290000      -0.51990000       0.19380000
O       -2.05520000       0.20820000       0.77970000
C       -1.56750000      -1.98540000       0.05960000
C       -2.36200000      -2.60420000       1.23230000
C       -3.06800000      -2.34650000      -0.03170000
C       -0.65550000      -2.92140000      -0.64170000
O        0.39090000      -2.63960000      -1.17150000
H       -0.76330000       1.66330000       0.35510000
H        0.01980000      -0.13380000      -1.46720000
H        0.85970000      -0.44130000       0.03320000
H       -2.10730000      -3.62370000       1.50010000
H       -2.52670000      -1.92220000       2.05720000
H       -3.72260000      -1.48550000      -0.08440000
H       -3.32310000      -3.17990000      -0.67690000
H       -1.03030000      -3.97180000      -0.64450000
