18
Properties=species:S:1:pos:R:3 gdb_18164=T pbc="F F F"
C       -0.16780000       1.49260000       0.08450000
C        0.19580000       0.02360000      -0.15690000
C        0.74700000      -0.64580000       1.08940000
O       -0.18120000      -0.68130000       2.23220000
C        0.13850000      -2.06180000       2.46310000
C       -0.39870000      -2.86380000       1.33490000
O       -1.57910000      -2.51090000       0.68460000
C        0.94080000      -2.15800000       1.16570000
H        0.70680000       2.07220000       0.40070000
H       -0.56470000       1.95450000      -0.82400000
H       -0.92510000       1.58040000       0.86920000
H       -0.66810000      -0.53820000      -0.52160000
H        0.96790000      -0.05130000      -0.93430000
H        1.65310000      -0.12300000       1.42610000
H        0.32040000      -2.37150000       3.48640000
H       -0.29810000      -3.94120000       1.43610000
H       -1.84670000      -1.66600000       1.07160000
H        1.85840000      -2.68590000       0.94080000
