17
Properties=species:S:1:pos:R:3 gdb_45690=T pbc="F F F"
O        0.03100000      -0.12610000      -0.04260000
C        0.00620000       1.07710000      -0.12690000
C       -1.34190000       1.82320000      -0.21720000
C       -1.24290000       3.28340000      -0.59030000
C       -0.11540000       3.72460000      -1.12290000
C        0.69320000       4.98460000      -1.29950000
O        1.90860000       4.20190000      -1.11260000
C        1.16770000       2.95460000      -1.24000000
C        1.28940000       1.91860000      -0.12940000
H       -1.97820000       1.24860000      -0.90190000
H       -1.82010000       1.72060000       0.76680000
H       -2.07960000       3.93740000      -0.36120000
H        0.66130000       5.44120000      -2.29840000
H        0.57670000       5.76690000      -0.54110000
H        1.36400000       2.50190000      -2.22270000
H        1.35110000       2.45430000       0.82660000
H        2.14730000       1.25010000      -0.21990000
