17
Properties=species:S:1:pos:R:3 gdb_80114=T pbc="F F F"
O        0.02080000       1.37550000      -0.07120000
C       -0.03950000      -0.00730000       0.00170000
C       -0.42280000      -0.75460000       1.25800000
C       -1.13840000       0.05080000       2.28430000
C       -2.29350000       0.54580000       1.82520000
C       -2.59160000       0.09260000       0.41370000
C       -1.36910000      -0.75540000       0.02250000
C       -1.53970000      -1.90880000      -0.80180000
C       -1.68280000      -2.87580000      -1.50480000
H       -0.40760000       1.73250000       0.71850000
H        0.73320000      -0.45900000      -0.61100000
H        0.14290000      -1.63540000       1.53960000
H       -0.72930000       0.22560000       3.27290000
H       -2.95860000       1.20050000       2.37710000
H       -3.51400000      -0.49630000       0.36140000
H       -2.71470000       0.94070000      -0.27210000
H       -1.80830000      -3.72760000      -2.12560000
