21
Properties=species:S:1:pos:R:3 gdb_113585=T pbc="F F F"
C       -0.11140000       1.27390000      -0.38370000
O       -0.27640000       0.22840000       0.55410000
C       -1.39580000      -0.55940000       0.30900000
C       -1.33140000      -1.65020000      -0.75270000
C       -1.32210000      -2.00690000       0.70310000
C       -0.11720000      -2.56460000       1.46400000
C       -0.77680000      -3.38290000       2.60170000
C       -2.22830000      -2.88100000       2.58170000
O       -2.49360000      -2.60010000       1.21140000
H        0.80040000       1.81090000      -0.11130000
H       -0.01140000       0.88730000      -1.40790000
H       -0.95880000       1.97530000      -0.36000000
H       -2.35600000      -0.05860000       0.44140000
H       -2.23230000      -1.86110000      -1.31870000
H       -0.39910000      -1.76650000      -1.29620000
H        0.51250000      -3.19170000       0.82790000
H        0.50170000      -1.74810000       1.84200000
H       -0.75110000      -4.45140000       2.37030000
H       -0.29390000      -3.23590000       3.57070000
H       -2.96250000      -3.61570000       2.92090000
H       -2.33620000      -1.96890000       3.19010000
