17
Properties=species:S:1:pos:R:3 gdb_90911=T pbc="F F F"
O        0.12640000       1.38280000      -0.18470000
C        0.06470000      -0.00380000       0.00840000
C        0.22350000      -0.44930000       1.55620000
C       -1.32190000      -0.19700000       1.65590000
C       -2.74780000      -0.87190000       1.53470000
O       -2.84200000      -0.16150000       0.20980000
C       -1.38690000      -0.53240000       0.19850000
C       -1.49740000      -2.07110000       0.16480000
C       -2.43190000      -2.29840000       1.08720000
H        1.04680000       1.65470000      -0.11110000
H        0.68470000      -0.54570000      -0.72060000
H        0.53260000      -1.49260000       1.64090000
H        0.86610000       0.19310000       2.16390000
H       -1.47620000       0.87550000       1.78240000
H       -3.59020000      -0.65730000       2.19220000
H       -0.94430000      -2.74260000      -0.47620000
H       -2.89240000      -3.21120000       1.43440000
