15
Properties=species:S:1:pos:R:3 gdb_76484=T pbc="F F F"
O        0.06720000       1.43290000       0.28900000
C        0.08000000       0.04440000       0.08640000
C       -0.53270000      -0.81320000       1.19480000
O       -0.98980000      -0.17110000       2.34280000
C       -1.26060000      -0.58120000      -0.09320000
C       -2.61300000       0.06020000      -0.33030000
C       -2.75950000      -1.07570000      -1.35030000
O       -3.55950000      -1.47230000      -2.13040000
O       -1.50940000      -1.60490000      -1.08530000
H        0.91540000       1.68690000       0.67060000
H        0.91130000      -0.35680000      -0.49010000
H       -0.10650000      -1.79260000       1.39140000
H       -0.87280000       0.77680000       2.18770000
H       -3.31230000       0.01450000       0.50620000
H       -2.60800000       1.06040000      -0.76600000
