17
Properties=species:S:1:pos:R:3 gdb_70114=T pbc="F F F"
O        0.02520000       1.35220000       0.02170000
C       -0.01780000      -0.03840000       0.01940000
C       -0.49630000      -0.76860000      -1.20250000
C       -1.34430000      -0.75510000       0.07030000
C       -1.13790000      -1.91790000       0.97950000
C        0.10810000      -1.96520000       1.45330000
C        0.93970000      -0.77580000       0.98280000
C        2.22250000      -1.13480000       0.38620000
C        3.27560000      -1.42180000      -0.11850000
H        0.75700000       1.62590000      -0.54320000
H       -0.84180000      -0.13580000      -2.01330000
H       -0.01950000      -1.69700000      -1.49820000
H       -2.27900000      -0.20680000       0.05970000
H       -1.91460000      -2.64300000       1.19440000
H        0.52630000      -2.73310000       2.09190000
H        1.12900000      -0.09890000       1.82980000
H        4.20750000      -1.68020000      -0.55700000
