22
Properties=species:S:1:pos:R:3 gdb_16698=T pbc="F F F"
C       -0.12440000       1.57160000      -0.03060000
C        0.01270000       0.05310000      -0.03050000
C        1.14890000      -0.58060000      -0.89610000
C        2.10810000      -0.28470000       0.29400000
C        0.83430000      -0.60090000       1.13050000
C        0.66510000      -2.11470000       0.85420000
C       -0.64780000      -2.73690000       1.32670000
C        0.87100000      -2.08470000      -0.70530000
H        0.82400000       2.09110000       0.13130000
H       -0.53170000       1.92150000      -0.98590000
H       -0.81410000       1.89540000       0.75700000
H       -0.97880000      -0.38300000      -0.19910000
H        1.35890000      -0.23220000      -1.90910000
H        2.97410000      -0.94160000       0.42460000
H        2.42830000       0.75540000       0.35160000
H        0.72580000      -0.27100000       2.16590000
H        1.48950000      -2.65990000       1.32880000
H       -1.51950000      -2.22450000       0.90640000
H       -0.71130000      -3.78880000       1.02700000
H       -0.73330000      -2.69820000       2.41860000
H       -0.02550000      -2.41020000      -1.24380000
H        1.70450000      -2.71340000      -1.03250000
