18
Properties=species:S:1:pos:R:3 gdb_9008=T pbc="F F F"
C        0.04880000       1.49610000       0.01550000
C        0.03820000       0.04030000      -0.01980000
C        0.04480000      -1.16390000      -0.04940000
C        0.02830000      -2.62170000      -0.07240000
C       -1.41060000      -3.21860000      -0.02610000
C       -2.24330000      -2.80610000      -1.25370000
C       -1.34150000      -4.67230000       0.10530000
C       -1.26500000      -5.86890000       0.19580000
H        0.87360000       1.87280000       0.63050000
H        0.16410000       1.92000000      -0.98830000
H       -0.88270000       1.89110000       0.43600000
H        0.53000000      -2.99380000      -0.97470000
H        0.59670000      -3.01560000       0.77790000
H       -1.89780000      -2.81440000       0.87060000
H       -1.79620000      -3.20050000      -2.17150000
H       -3.26170000      -3.19510000      -1.17860000
H       -2.28460000      -1.71640000      -1.32680000
H       -1.20940000      -6.92540000       0.28560000
