19
Properties=species:S:1:pos:R:3 gdb_73165=T pbc="F F F"
C       -0.27410000       1.39000000      -0.12820000
C       -0.00030000      -0.08570000       0.03390000
C       -1.20190000      -1.01820000       0.39330000
C       -0.47240000      -1.46790000       1.69820000
C        0.79940000      -0.74790000       1.20890000
N        1.54940000      -1.56500000       0.21460000
C        1.05700000      -0.73790000      -0.91140000
C        0.58430000      -1.48330000      -2.08080000
N        0.18870000      -2.05450000      -3.00480000
H        0.65250000       1.97210000      -0.18140000
H       -0.84530000       1.58160000      -1.04460000
H       -0.86330000       1.77220000       0.71210000
H       -2.14090000      -0.48270000       0.55060000
H       -1.37930000      -1.81460000      -0.33240000
H       -0.89590000      -1.00460000       2.59410000
H       -0.36670000      -2.54180000       1.86220000
H        1.41170000      -0.18530000       1.91910000
H        2.55640000      -1.56910000       0.31920000
H        1.77370000       0.01880000      -1.26050000
