17
Properties=species:S:1:pos:R:3 gdb_81083=T pbc="F F F"
C       -0.16660000       1.55100000      -0.01950000
C        0.02170000       0.04020000       0.01480000
C        1.22130000      -0.63210000      -0.76310000
C        2.16670000      -0.15180000       0.39460000
C        0.89250000      -0.62930000       1.15980000
C        0.64620000      -0.64090000       2.62080000
O        1.48370000      -0.37470000       3.44880000
C        0.94060000      -1.82530000       0.14660000
O        0.81830000      -3.00610000       0.12750000
H        0.75170000       2.11500000       0.15280000
H       -0.56490000       1.85060000      -0.99440000
H       -0.89290000       1.85750000       0.73990000
H       -0.94050000      -0.45340000      -0.15300000
H        1.41120000      -0.61270000      -1.83400000
H        3.08260000      -0.71980000       0.55870000
H        2.35730000       0.91860000       0.43230000
H       -0.38650000      -0.93370000       2.91620000
