22
Properties=species:S:1:pos:R:3 gdb_61074=T pbc="F F F"
C       -0.08750000       1.52010000      -0.26550000
N        0.04560000       0.11360000       0.07990000
C        0.07800000      -0.24940000       1.39120000
O        0.03340000       0.50790000       2.34160000
C        0.05580000      -0.87960000      -0.99630000
C        1.26590000      -1.87370000      -0.99520000
C        0.66730000      -3.27570000      -1.26590000
C       -0.72670000      -3.00160000      -1.86200000
C       -1.20470000      -1.77550000      -1.07610000
H        0.74820000       1.84890000      -0.89410000
H       -1.02310000       1.70840000      -0.80570000
H       -0.08880000       2.09240000       0.66190000
H        0.15590000      -1.34610000       1.51720000
H        0.10600000      -0.29400000      -1.91800000
H        1.97760000      -1.58980000      -1.77580000
H        1.81130000      -1.83470000      -0.05020000
H        1.29850000      -3.88530000      -1.91750000
H        0.55710000      -3.82480000      -0.32370000
H       -0.64090000      -2.75480000      -2.92790000
H       -1.40420000      -3.85590000      -1.78060000
H       -1.50830000      -2.07460000      -0.06620000
H       -2.05410000      -1.25850000      -1.53150000
