23
Properties=species:S:1:pos:R:3 gdb_112580=T pbc="F F F"
C       -0.23310000       1.51950000      -0.05400000
C        0.07640000       0.02020000      -0.11590000
C        0.75170000      -0.50630000       1.14310000
C       -0.06420000      -0.57510000       2.46370000
C        0.60790000      -1.95820000       2.78600000
C       -0.31090000      -3.06620000       3.30960000
C        1.01220000      -2.03030000       1.26960000
C        1.77380000      -1.80270000       3.64620000
C        2.73440000      -1.67980000       4.36030000
H        0.68270000       2.10710000       0.07450000
H       -0.72410000       1.86380000      -0.96950000
H       -0.89560000       1.75370000       0.78650000
H       -0.85310000      -0.54100000      -0.28540000
H        0.71900000      -0.18720000      -0.98210000
H        1.68420000       0.04170000       1.31930000
H        0.06740000       0.22080000       3.19870000
H       -1.13410000      -0.71030000       2.26980000
H       -1.18420000      -3.17480000       2.65850000
H        0.21460000      -4.02580000       3.34470000
H       -0.66130000      -2.83780000       4.32110000
H        0.27440000      -2.61330000       0.70790000
H        2.01200000      -2.40390000       1.04090000
H        3.58250000      -1.57100000       4.98970000
