14
Properties=species:S:1:pos:R:3 gdb_649=T pbc="F F F"
C       -0.04750000       1.57470000      -0.04630000
C        1.49960000       1.35610000       0.00180000
C        1.19650000       0.17020000       0.97410000
C       -0.01320000       0.02760000       0.01750000
O        0.59090000      -0.34520000      -1.23210000
C        1.69960000       0.58250000      -1.30690000
H       -0.43610000       2.04020000       0.86080000
H       -0.48250000       2.02850000      -0.94010000
H        2.20640000       2.15160000       0.23510000
H        1.90180000      -0.66350000       1.01550000
H        0.92340000       0.50530000       1.97590000
H       -0.88050000      -0.60270000       0.20740000
H        1.60770000       1.20680000      -2.20370000
H        2.64750000       0.03290000      -1.35080000
