15
Properties=species:S:1:pos:R:3 gdb_20225=T pbc="F F F"
C       -0.04660000       1.54640000      -0.03480000
C        1.20240000       2.02500000      -0.03960000
C        2.13530000       0.85100000       0.01690000
C        2.08060000       0.02640000       1.33330000
C        0.64490000      -0.52380000       1.33880000
C        1.72200000      -1.19420000       0.55230000
N        1.37270000      -0.29440000      -0.64320000
C        0.04430000       0.04970000       0.02490000
H       -0.96790000       2.11420000      -0.00420000
H        1.50850000       3.06320000      -0.01370000
H        3.13740000       0.98050000      -0.39410000
H        2.66170000       0.12450000       2.24150000
H        0.15310000      -0.83680000       2.25110000
H        2.10760000      -2.20110000       0.48910000
H       -0.79040000      -0.52460000      -0.37900000
