20
Properties=species:S:1:pos:R:3 gdb_37196=T pbc="F F F"
C        0.07190000       1.41950000       0.00170000
C        1.31810000       0.63400000       0.01340000
N       -0.09500000      -0.04170000       0.04450000
C        0.24780000      -0.56440000      -1.33510000
C       -0.11800000       0.14760000      -2.67030000
C        1.33490000       0.76950000      -2.69040000
C        1.64650000       0.03180000      -1.35010000
C        2.26130000      -1.39580000      -1.35900000
C        0.81050000      -2.00340000      -1.31530000
H       -0.21620000       1.88580000       0.93950000
H       -0.23330000       1.98530000      -0.87430000
H        1.96570000       0.61270000       0.88600000
H       -0.33620000      -0.53820000      -3.49320000
H       -0.93490000       0.87180000      -2.61350000
H        1.95310000       0.45130000      -3.53390000
H        1.36720000       1.86100000      -2.63780000
H        2.81990000      -1.62780000      -2.26940000
H        2.89710000      -1.63600000      -0.50270000
H        0.56400000      -2.54740000      -0.40130000
H        0.54040000      -2.62020000      -2.17630000
