14
Properties=species:S:1:pos:R:3 gdb_570=T pbc="F F F"
O       -0.01020000       1.36780000      -0.26080000
C        0.01840000      -0.01900000       0.03880000
C       -1.41640000      -0.50500000       0.09160000
C       -2.12990000      -0.60750000      -1.27300000
O       -2.14140000      -2.05120000      -1.20720000
C       -1.59640000      -2.03760000       0.12680000
H        0.89540000       1.67850000      -0.35020000
H        0.56730000      -0.58540000      -0.73170000
H        0.51310000      -0.21330000       1.00490000
H       -1.96390000       0.05000000       0.85620000
H       -3.14490000      -0.19230000      -1.30480000
H       -1.56480000      -0.23410000      -2.13510000
H       -0.67520000      -2.63090000       0.20330000
H       -2.31520000      -2.40730000       0.86950000
