21
Properties=species:S:1:pos:R:3 gdb_90771=T pbc="F F F"
C        0.40530000       1.53990000      -0.10930000
C        0.06220000       0.07550000       0.07480000
O        0.73990000      -0.77570000      -0.88580000
C        1.28860000      -1.60810000       0.15200000
C        0.66630000      -0.72380000       1.26220000
C        1.87820000      -0.12640000       1.97580000
O        2.96300000      -0.22770000       1.05760000
C        2.80330000      -1.44370000       0.31310000
C        3.46300000      -2.62930000       1.01940000
H        1.48390000       1.69800000      -0.03570000
H        0.07480000       1.87300000      -1.09830000
H       -0.10330000       2.15570000       0.64100000
H       -1.02440000      -0.06960000      -0.00240000
H        0.97020000      -2.65130000       0.05470000
H       -0.05840000      -1.17450000       1.94010000
H        1.76650000       0.92960000       2.23760000
H        2.08660000      -0.68410000       2.90190000
H        3.27020000      -1.27300000      -0.66190000
H        2.96460000      -2.86590000       1.96580000
H        3.42550000      -3.52300000       0.38800000
H        4.50980000      -2.40060000       1.23510000
