23
Properties=species:S:1:pos:R:3 gdb_84365=T pbc="F F F"
C       -0.84470000       1.04760000      -0.11280000
C        0.02860000      -0.20440000      -0.14340000
C        1.10930000      -0.20510000      -1.26530000
O        1.63240000       1.08380000      -1.60350000
C        2.17640000      -1.10610000      -0.69220000
C        2.01750000      -1.27830000       0.61930000
C        0.78880000      -0.58120000       1.17590000
C        1.21800000       0.63930000       2.01800000
C       -0.04670000      -1.52590000       2.05730000
H       -0.24770000       1.95510000      -0.00060000
H       -1.40520000       1.14530000      -1.04820000
H       -1.57070000       1.00580000       0.70610000
H       -0.61730000      -1.06330000      -0.36670000
H        0.68790000      -0.57440000      -2.20650000
H        2.26530000       1.32550000      -0.91910000
H        2.99950000      -1.48330000      -1.28920000
H        2.69020000      -1.83700000       1.26450000
H        1.77730000       1.36740000       1.42290000
H        0.34950000       1.15070000       2.44570000
H        1.86150000       0.32730000       2.84790000
H        0.50510000      -1.81860000       2.95790000
H       -0.97360000      -1.04020000       2.38230000
H       -0.31490000      -2.43870000       1.51570000
