20
Properties=species:S:1:pos:R:3 gdb_122916=T pbc="F F F"
C       -0.05450000       1.39470000       0.03960000
O       -0.02330000      -0.01190000       0.00620000
C        0.64410000      -0.52070000      -1.12520000
C        0.61570000      -2.04210000      -1.05510000
C        1.32400000      -2.69150000      -2.24610000
C        1.25450000      -4.22840000      -2.19380000
O       -0.06860000      -4.73180000      -2.17820000
C        2.03070000      -4.81830000      -3.30580000
N        2.61480000      -5.26190000      -4.19880000
H        0.95880000       1.82640000       0.06730000
H       -0.58010000       1.81340000      -0.83360000
H       -0.58800000       1.68890000       0.94650000
H        0.15620000      -0.16930000      -2.05220000
H        1.68590000      -0.15450000      -1.15620000
H        1.09030000      -2.35820000      -0.11830000
H       -0.42370000      -2.38020000      -1.01080000
H        0.87820000      -2.35560000      -3.19210000
H        2.37920000      -2.39480000      -2.27980000
H        1.70130000      -4.57590000      -1.25510000
H       -0.48770000      -4.50700000      -3.01730000
