14
Properties=species:S:1:pos:R:3 gdb_132052=T pbc="F F F"
C       -0.02620000       1.53800000      -0.00480000
C       -0.03990000       0.03820000       0.00530000
C       -1.15620000      -0.71910000      -0.14030000
F       -2.34470000      -0.14160000      -0.30620000
C       -1.13640000      -2.14490000      -0.12630000
C        0.06240000      -2.73490000       0.04120000
O        1.20120000      -2.04840000       0.19040000
C        1.23480000      -0.63670000       0.18370000
O        2.30630000      -0.11220000       0.32500000
H        0.62200000       1.90990000      -0.80480000
H       -1.03090000       1.93820000      -0.14460000
H        0.38570000       1.92370000       0.93330000
H       -2.04480000      -2.71730000      -0.24510000
H        0.22280000      -3.80560000       0.07150000
