16
Properties=species:S:1:pos:R:3 gdb_17467=T pbc="F F F"
C       -0.00390000       1.52800000       0.00570000
C       -0.04740000       0.02830000       0.12470000
C       -1.32190000      -0.73700000      -0.26030000
C       -1.29260000      -2.02770000       0.55320000
O       -0.20570000      -2.90820000       0.26690000
C       -0.08490000      -2.04680000       1.39900000
C        0.69490000      -0.77340000       1.12150000
O        1.15850000      -0.66370000      -0.22590000
H        0.96050000       1.90820000       0.35160000
H       -0.13520000       1.83710000      -1.03730000
H       -0.80010000       1.99320000       0.59620000
H       -2.20680000      -0.15100000       0.01370000
H       -1.36690000      -0.92930000      -1.33690000
H       -2.22410000      -2.51780000       0.82840000
H       -0.02380000      -2.53020000       2.36980000
H        1.33530000      -0.34370000       1.88750000
