16
Properties=species:S:1:pos:R:3 gdb_35179=T pbc="F F F"
N       -0.10030000      -1.16380000       0.08280000
C       -0.04980000      -0.00930000       0.05540000
C        0.00890000       1.43390000      -0.01340000
O        0.59560000       2.10460000       1.13210000
C        1.29460000       2.13590000      -0.08330000
C        2.74800000       1.74070000      -0.35700000
C        2.50290000       2.30360000      -1.79330000
C        1.83300000       3.35030000      -0.84690000
C        3.09850000       3.20770000       0.06380000
H       -0.89110000       1.90510000      -0.40320000
H        3.25530000       0.82050000      -0.07450000
H        3.39570000       2.65250000      -2.31540000
H        1.84670000       1.72850000      -2.45060000
H        1.30260000       4.26090000      -1.12070000
H        2.97990000       3.46070000       1.11860000
H        4.02540000       3.60850000      -0.35210000
