14
Properties=species:S:1:pos:R:3 gdb_133302=T pbc="F F F"
N        0.09040000       1.38520000       0.14390000
C       -0.00410000      -0.00040000       0.05070000
C       -1.17230000      -0.69430000       0.02820000
F       -2.31730000       0.00050000       0.01970000
C       -1.20640000      -2.13560000       0.00200000
N       -2.31090000      -2.80050000      -0.02070000
C        0.15350000      -2.69730000      -0.01340000
N        1.26710000      -2.03910000       0.00710000
N        1.18100000      -0.69620000       0.02240000
H        0.70230000       1.79970000      -0.54960000
H       -0.82460000       1.81550000       0.10590000
H       -2.11190000      -3.80240000      -0.05410000
H        0.25580000      -3.77950000      -0.03720000
H        2.04870000      -0.21700000       0.20020000
