16
Properties=species:S:1:pos:R:3 gdb_27729=T pbc="F F F"
C        0.00130000       1.53250000       0.07860000
C        0.03500000       0.03520000       0.02890000
C       -0.02040000      -0.76750000      -1.10990000
N        0.04130000      -2.09210000      -0.68930000
C        0.13080000      -2.12840000       0.65350000
O        0.20070000      -3.32770000       1.26240000
C        0.13060000      -0.82950000       1.14630000
C       -0.12160000      -0.48650000      -2.51350000
O       -0.15780000      -1.35190000      -3.37660000
H        0.90620000       1.93280000       0.54960000
H       -0.07650000       1.97280000      -0.91770000
H       -0.85100000       1.88950000       0.66770000
H        0.01580000      -2.87280000      -1.32550000
H        0.26260000      -3.18980000       2.21290000
H        0.19290000      -0.54580000       2.18640000
H       -0.16640000       0.59000000      -2.77780000
