18
Properties=species:S:1:pos:R:3 gdb_43875=T pbc="F F F"
O        0.07150000      -0.03380000      -0.00820000
C       -0.02790000       1.16300000       0.01220000
C       -1.17830000       2.19550000       0.08990000
C       -0.06170000       3.27970000       0.04020000
C        0.03760000       4.40140000      -1.04540000
C        0.22860000       5.43750000       0.07060000
C       -0.93970000       5.39150000       1.00980000
C        0.12900000       4.33680000       1.13110000
N        0.89950000       2.17800000      -0.03230000
H       -1.85590000       2.17510000      -0.76570000
H       -1.75220000       2.16240000       1.01790000
H        0.92680000       4.26060000      -1.66490000
H       -0.82940000       4.54230000      -1.69970000
H        0.90280000       6.28370000       0.03150000
H       -0.94110000       6.13590000       1.79960000
H       -1.93080000       5.13150000       0.64360000
H        0.69820000       4.19040000       2.04170000
H        1.90840000       2.16460000      -0.08240000
