14
Properties=species:S:1:pos:R:3 gdb_133541=T pbc="F F F"
F        0.38220000       0.12480000       0.20040000
C       -0.03790000       1.39460000       0.05330000
F        1.03750000       2.14330000      -0.22060000
F       -0.83650000       1.43070000      -1.02050000
C       -0.75370000       1.88320000       1.29500000
C       -1.56070000       0.85790000       2.07930000
C       -0.26100000       1.35210000       2.63400000
C       -1.23040000       3.23520000       1.20740000
C       -1.63090000       4.36600000       1.13880000
H       -2.48430000       1.21350000       2.51800000
H       -1.59370000      -0.14720000       1.67720000
H        0.59060000       0.68340000       2.60950000
H       -0.27840000       2.05230000       3.45950000
H       -1.98260000       5.36590000       1.07340000
