16
Properties=species:S:1:pos:R:3 gdb_29304=T pbc="F F F"
O       -0.14550000       1.31570000      -0.06940000
C        0.01400000      -0.02060000      -0.07160000
C        0.22590000      -0.84310000      -1.12680000
O        0.32300000      -2.12380000      -0.61190000
C        0.16260000      -1.98280000       0.71960000
N       -0.02530000      -0.75060000       1.09960000
C        0.21380000      -3.17710000       1.56490000
C       -0.33250000      -4.50110000       1.06000000
C        1.14660000      -4.32470000       1.21960000
H       -0.27550000       1.57380000       0.85120000
H        0.32670000      -0.72650000      -2.18900000
H        0.07280000      -2.94340000       2.61260000
H       -0.86550000      -5.11960000       1.77290000
H       -0.73480000      -4.51240000       0.05390000
H        1.74290000      -4.21690000       0.32130000
H        1.64650000      -4.82000000       2.04400000
