16
Properties=species:S:1:pos:R:3 gdb_123371=T pbc="F F F"
C        0.10320000      -0.05760000      -1.24720000
C        0.03700000       0.58900000      -0.23580000
C       -0.00090000       1.36990000       1.00740000
N        1.20240000       2.13980000       1.30650000
C        1.52880000       3.20190000       0.44750000
C        2.72260000       3.90110000       0.40690000
N        2.55250000       4.88230000      -0.52110000
N        1.34000000       4.87700000      -1.08520000
C        0.70900000       3.85520000      -0.50580000
H        0.15520000      -0.62100000      -2.14590000
H       -0.85170000       2.06070000       0.98480000
H       -0.18170000       0.69630000       1.85260000
H        1.99250000       1.53180000       1.47810000
H        3.64380000       3.78000000       0.95370000
H        3.22270000       5.57400000      -0.80860000
H       -0.30130000       3.61680000      -0.79980000
