16
Properties=species:S:1:pos:R:3 gdb_75697=T pbc="F F F"
C       -0.01980000       1.44280000      -0.12300000
N       -0.01710000      -0.00070000      -0.02230000
C       -1.17840000      -0.78370000       0.03160000
N       -2.39070000      -0.41830000       0.10550000
C       -0.72660000      -2.21190000       0.01650000
N        0.04320000      -2.52300000      -1.21200000
C        0.75440000      -2.19290000       0.04920000
C        1.16400000      -0.74090000       0.06210000
O        2.27440000      -0.27530000       0.14420000
H        1.02060000       1.76850000      -0.14990000
H       -0.53070000       1.76810000      -1.03520000
H       -0.51430000       1.89630000       0.74310000
H       -2.48560000       0.59840000       0.10590000
H       -1.34170000      -2.96550000       0.48930000
H        0.06040000      -3.53540000      -1.32850000
H        1.37620000      -2.92490000       0.54730000
