20
Properties=species:S:1:pos:R:3 gdb_113105=T pbc="F F F"
C       -0.01590000       1.31160000      -0.32840000
O       -0.12920000       0.08460000       0.35640000
C       -1.37880000      -0.54320000       0.18200000
C       -1.51400000      -1.31440000      -1.16690000
C       -1.01310000      -2.58800000      -0.42880000
C       -1.36440000      -1.90110000       0.92000000
N       -1.61630000      -3.85920000      -0.74000000
C       -0.91530000      -4.95180000      -1.15390000
O        0.28550000      -4.99980000      -1.31050000
H        0.97510000       1.71490000      -0.10730000
H       -0.11260000       1.19290000      -1.41780000
H       -0.77770000       2.03300000       0.00700000
H       -2.19200000       0.15400000       0.42820000
H       -2.56160000      -1.40810000      -1.47200000
H       -0.92740000      -0.95810000      -2.01640000
H        0.06200000      -2.71970000      -0.54420000
H       -0.65130000      -1.99190000       1.74120000
H       -2.36330000      -2.17910000       1.27050000
H       -2.61740000      -3.95030000      -0.65670000
H       -1.58310000      -5.81790000      -1.33640000
