18
Properties=species:S:1:pos:R:3 gdb_107261=T pbc="F F F"
O        0.56450000       0.44620000      -0.99140000
C       -0.05510000       0.28310000       0.27850000
C       -1.46390000      -0.21800000       0.15040000
N       -1.83360000      -1.30870000      -0.77760000
C       -2.48250000       0.03090000      -0.88960000
C       -3.60070000       0.15810000       0.18440000
C       -3.69540000      -1.07840000       1.06360000
C       -2.57190000      -0.10190000       1.26030000
O       -2.35850000       0.62790000       2.41710000
H        0.14020000       1.19480000      -1.42390000
H        0.56430000      -0.44540000       0.81620000
H       -0.04680000       1.21290000       0.86420000
H       -1.09200000      -1.32290000      -1.48120000
H       -2.42480000       0.59750000      -1.81090000
H       -4.38040000       0.90720000       0.15520000
H       -4.46800000      -0.99550000       1.82270000
H       -3.52940000      -2.06810000       0.65780000
H       -2.11610000       0.01430000       3.12000000
