20
Properties=species:S:1:pos:R:3 gdb_57323=T pbc="F F F"
C       -0.03230000       1.53630000       0.02930000
C       -0.00780000      -0.00050000       0.06310000
C        0.69560000      -0.49420000       1.33650000
C       -1.44690000      -0.53950000       0.00480000
C        0.76670000      -0.50700000      -1.21680000
C        2.13930000      -0.00530000      -1.31190000
C        3.26140000       0.41400000      -1.39340000
C        0.76670000      -1.97760000      -1.30170000
N        0.74720000      -3.13120000      -1.36190000
H        0.97690000       1.95480000       0.05720000
H       -0.53120000       1.90760000      -0.87290000
H       -0.58330000       1.91710000       0.89460000
H        0.16500000      -0.13160000       2.22220000
H        0.71750000      -1.58740000       1.38130000
H        1.72590000      -0.13020000       1.38510000
H       -1.96430000      -0.19800000      -0.89890000
H       -1.47130000      -1.63280000       0.01820000
H       -2.01470000      -0.17950000       0.86810000
H        0.20700000      -0.14450000      -2.09070000
H        4.25630000       0.77880000      -1.46940000
