19
Properties=species:S:1:pos:R:3 gdb_10725=T pbc="F F F"
C        0.95440000      -1.38990000       0.16020000
C       -0.05030000      -0.72790000      -0.78400000
O       -0.06910000      -1.37920000      -2.05500000
C       -1.48090000      -0.59700000      -0.26270000
C       -2.31240000       0.40860000      -1.04170000
O       -1.91640000       1.73190000      -0.72510000
C       -2.16030000      -1.73830000       0.40390000
N       -1.78420000      -0.54110000       1.18100000
H        1.90940000      -1.48990000      -0.36140000
H        1.12860000      -0.79100000       1.06010000
H        0.63790000      -2.39400000       0.46660000
H        0.29830000       0.28700000      -1.00550000
H       -0.46490000      -2.24880000      -1.92690000
H       -2.14800000       0.27630000      -2.11460000
H       -3.37990000       0.24980000      -0.82950000
H       -2.01790000       1.80900000       0.23170000
H       -3.22880000      -1.88390000       0.27040000
H       -1.60360000      -2.65590000       0.57760000
H       -0.95370000      -0.74460000       1.73030000
