27
Properties=species:S:1:pos:R:3 gdb_101715=T pbc="F F F"
C       -0.10550000       1.62790000       0.00110000
C        0.05880000       0.10470000       0.01530000
C        0.70130000      -0.46920000       1.29250000
C       -0.15830000      -0.21310000       2.53860000
C        1.00370000      -1.97020000       1.10260000
C        1.82750000      -2.58940000       2.21640000
C        1.19400000      -3.34820000       3.36240000
C        2.03260000      -4.08400000       2.34590000
C        1.41220000      -5.08130000       1.39070000
H        0.85480000       2.13030000       0.16510000
H       -0.49670000       1.96920000      -0.96260000
H       -0.79700000       1.97480000       0.77480000
H       -0.92090000      -0.37060000      -0.13540000
H        0.67250000      -0.19160000      -0.84530000
H        1.66490000       0.04440000       1.43540000
H       -0.31890000       0.85540000       2.70860000
H       -1.14370000      -0.68460000       2.43390000
H        0.31120000      -0.62400000       3.43600000
H        0.05470000      -2.51000000       0.98920000
H        1.53880000      -2.09440000       0.15070000
H        2.69800000      -1.99250000       2.48320000
H        1.57990000      -3.21070000       4.36710000
H        0.11910000      -3.49970000       3.32090000
H        3.02280000      -4.37440000       2.68910000
H        0.39850000      -4.79230000       1.09950000
H        2.00450000      -5.18070000       0.47370000
H        1.34900000      -6.07290000       1.85250000
