16
Properties=species:S:1:pos:R:3 gdb_19011=T pbc="F F F"
C       -0.04370000       1.51450000       0.01290000
C       -0.00730000       0.02500000      -0.03250000
C       -0.05050000      -0.82230000      -1.06980000
C        0.02490000      -2.20210000      -0.45070000
C       -0.78560000      -2.15990000       0.89220000
O        0.17420000      -3.04360000       1.56320000
C        0.99440000      -2.11310000       0.77990000
C        0.09320000      -0.89270000       1.17860000
H        0.85670000       1.92270000       0.48990000
H       -0.11880000       1.94140000      -0.99110000
H       -0.89650000       1.87660000       0.60140000
H       -0.12310000      -0.59340000      -2.12450000
H        0.01090000      -3.10960000      -1.05160000
H       -1.85070000      -2.32610000       1.07330000
H        2.08100000      -2.22260000       0.82530000
H        0.14680000      -0.49790000       2.19260000
