17
Properties=species:S:1:pos:R:3 gdb_86098=T pbc="F F F"
C       -0.48610000       1.50910000      -0.02780000
C        0.10150000       0.11590000      -0.11280000
O        1.23550000       0.11810000      -1.01630000
C        2.15990000      -0.69190000      -0.43910000
N        3.27400000      -0.89220000      -1.20200000
N        1.95570000      -1.14910000       0.73680000
C        0.70400000      -0.51690000       1.19340000
C        0.94960000       0.43860000       2.27640000
C        1.14550000       1.21660000       3.17150000
H        0.24590000       2.21420000       0.37140000
H       -0.80590000       1.84650000      -1.01760000
H       -1.35700000       1.50790000       0.63420000
H       -0.63360000      -0.58280000      -0.53070000
H        3.13610000      -0.85660000      -2.19970000
H        3.87340000      -1.63250000      -0.87340000
H        0.02080000      -1.28660000       1.57120000
H        1.32900000       1.89730000       3.96570000
