16
Properties=species:S:1:pos:R:3 gdb_49302=T pbc="F F F"
O       -0.21770000       0.02570000      -0.26700000
C       -0.00540000       1.21040000      -0.17220000
C        1.29510000       1.87920000      -0.05820000
C        1.27630000       3.24770000       0.03830000
N        2.36380000       4.03130000       0.11960000
C        3.68870000       3.46740000      -0.12670000
C        3.76310000       2.05920000       0.46180000
C        2.58740000       1.16950000       0.01890000
O        2.74680000      -0.01410000      -0.18010000
H       -0.85700000       1.93930000      -0.15940000
H        0.32210000       3.77150000       0.05360000
H        2.24610000       5.02830000       0.04750000
H        3.87690000       3.43300000      -1.21050000
H        4.43920000       4.12450000       0.32070000
H        4.69530000       1.56770000       0.17770000
H        3.73500000       2.11720000       1.55810000
