18
Properties=species:S:1:pos:R:3 gdb_106397=T pbc="F F F"
O        0.07230000       1.37930000      -0.13960000
C        0.02850000      -0.02340000       0.03490000
C       -1.38570000      -0.52980000       0.11690000
C       -2.50220000       0.08190000       1.01980000
C       -3.32020000      -0.46110000      -0.18250000
O       -2.19300000      -0.13420000      -1.03880000
C       -3.16340000      -1.99420000       0.00600000
N       -2.27780000      -2.61080000      -1.00680000
C       -1.70230000      -2.04630000       0.23490000
H       -0.53870000       1.57460000      -0.86050000
H        0.54230000      -0.55230000      -0.78410000
H        0.56160000      -0.25120000       0.96480000
H       -2.66980000      -0.34940000       2.01090000
H       -2.45530000       1.17060000       1.04920000
H       -4.27140000      -0.04760000      -0.51480000
H       -3.89320000      -2.58060000       0.55080000
H       -2.33320000      -3.62190000      -0.88810000
H       -1.21440000      -2.67450000       0.97040000
