21
Properties=species:S:1:pos:R:3 gdb_96145=T pbc="F F F"
O       -0.09070000       1.44760000       0.08690000
C       -0.00980000       0.02740000      -0.00500000
C        0.88190000      -0.52920000       1.12090000
C        0.83720000      -2.04780000       1.32330000
O       -0.35350000      -2.54700000       1.90820000
C       -1.59010000      -2.23000000       1.29270000
C       -1.55940000      -2.01620000      -0.24690000
C       -1.45130000      -0.48610000       0.00610000
C       -2.03010000      -0.74130000       1.42680000
H        0.80420000       1.79390000       0.16460000
H        0.43320000      -0.25930000      -0.97540000
H        1.92320000      -0.25220000       0.90470000
H        0.61250000      -0.03280000       2.05960000
H        1.05040000      -2.55800000       0.37080000
H        1.62710000      -2.34120000       2.02160000
H       -2.28850000      -2.97920000       1.67330000
H       -0.77720000      -2.51090000      -0.82830000
H       -2.52620000      -2.27820000      -0.68400000
H       -2.03620000       0.15780000      -0.65470000
H       -3.12040000      -0.65600000       1.43830000
H       -1.62510000      -0.17370000       2.26650000
