19
Properties=species:S:1:pos:R:3 gdb_75562=T pbc="F F F"
C       -0.12240000       1.53200000       0.04720000
C        0.02340000       0.03400000      -0.00630000
C        0.10100000      -0.64500000      -1.15210000
C        0.15170000      -2.14690000      -1.20860000
C       -0.37390000      -2.71310000       0.10790000
O        0.27420000      -2.09670000       1.20840000
C        0.03840000      -0.72080000       1.31990000
C        1.08780000      -0.14150000       2.27180000
O        2.03030000      -0.74360000       2.70340000
H        0.76290000       2.02400000       0.46770000
H       -0.28250000       1.93820000      -0.95480000
H       -0.97410000       1.83050000       0.67170000
H        0.09650000      -0.09850000      -2.09260000
H       -0.45460000      -2.51800000      -2.04420000
H        1.17690000      -2.49820000      -1.38650000
H       -1.46420000      -2.56490000       0.17030000
H       -0.16960000      -3.78250000       0.20400000
H       -0.93530000      -0.52690000       1.82260000
H        0.88850000       0.91550000       2.55740000
