23
Properties=species:S:1:pos:R:3 gdb_61298=T pbc="F F F"
C       -0.23870000       1.58200000      -0.00340000
C        0.05850000       0.07910000       0.05500000
C        0.78320000      -0.39550000      -1.23020000
C        0.00080000      -0.22260000      -2.44810000
C       -0.66330000      -0.08100000      -3.44060000
C        0.89470000      -0.31210000       1.28850000
C        0.22930000      -0.02870000       2.61950000
C       -0.79350000      -0.98780000       3.17790000
C        0.56260000      -0.86480000       3.82910000
H        0.69090000       2.16480000       0.00070000
H       -0.78850000       1.83320000      -0.91450000
H       -0.83980000       1.90450000       0.85100000
H       -0.89660000      -0.45920000       0.10860000
H        1.73390000       0.14740000      -1.32780000
H        1.04950000      -1.45510000      -1.12400000
H       -1.24070000       0.04110000      -4.32310000
H        1.12390000      -1.38520000       1.23440000
H        1.86300000       0.20800000       1.24460000
H        0.04450000       1.02240000       2.82180000
H       -1.65530000      -0.58570000       3.69900000
H       -1.00160000      -1.89100000       2.61270000
H        1.26210000      -1.68480000       3.70060000
H        0.62870000      -0.37510000       4.79440000
