15
Properties=species:S:1:pos:R:3 gdb_115135=T pbc="F F F"
C       -0.27170000       1.26870000      -0.05990000
O        0.08060000      -0.10820000      -0.01440000
C        0.85230000      -0.54370000      -1.12090000
C        1.28270000      -1.98490000      -0.85630000
O        0.29220000      -2.85340000      -1.45890000
C       -0.50020000      -2.19590000      -2.33450000
O       -1.35030000      -2.71130000      -2.99430000
C       -0.09360000      -0.70560000      -2.31340000
O       -0.50990000       0.13450000      -3.06020000
H        0.62700000       1.90200000      -0.07610000
H       -0.88700000       1.50890000      -0.93460000
H       -0.83990000       1.46960000       0.85000000
H        1.69070000       0.13410000      -1.32500000
H        2.25340000      -2.21200000      -1.30620000
H        1.30940000      -2.19820000       0.21300000
