23
Properties=species:S:1:pos:R:3 gdb_75347=T pbc="F F F"
C        0.32590000       1.57180000       0.02450000
C       -0.00160000       0.09780000      -0.02990000
C        0.01120000      -0.54600000      -1.20370000
C       -0.29720000      -2.00300000      -1.49190000
C       -1.57140000      -2.51560000      -0.83650000
C       -1.58910000      -3.83400000      -0.09820000
C       -1.65060000      -2.53310000       0.66680000
C       -0.46800000      -2.00890000       1.45300000
C       -0.32180000      -0.48400000       1.33550000
H        1.20090000       1.76140000       0.66030000
H        0.53090000       1.98180000      -0.96760000
H       -0.50200000       2.14500000       0.46330000
H        0.28740000       0.04350000      -2.07660000
H       -0.37370000      -2.13790000      -2.57670000
H        0.55080000      -2.63160000      -1.19010000
H       -2.48260000      -2.24160000      -1.36090000
H       -2.48150000      -4.44860000      -0.14800000
H       -0.66340000      -4.40090000      -0.05910000
H       -2.61650000      -2.27680000       1.09640000
H       -0.57650000      -2.27360000       2.51230000
H        0.45640000      -2.49150000       1.11770000
H        0.45930000      -0.14580000       2.03230000
H       -1.24380000      -0.00580000       1.70360000
