21
Properties=species:S:1:pos:R:3 gdb_116301=T pbc="F F F"
C       -0.17690000       1.68880000      -0.11540000
C        0.02540000       0.17830000       0.03980000
C       -1.28690000      -0.59060000      -0.00030000
O       -1.89800000      -0.44690000      -1.28550000
C       -2.87670000      -1.44540000      -1.32670000
O       -2.37070000      -2.56640000      -0.61330000
C       -1.23580000      -2.12420000       0.15420000
C        0.00130000      -2.82160000      -0.41230000
O       -0.18820000      -4.22150000      -0.43160000
H        0.78080000       2.21640000      -0.08820000
H       -0.66710000       1.91670000      -1.06540000
H       -0.80280000       2.08830000       0.69010000
H        0.68360000      -0.19240000      -0.75260000
H        0.51950000      -0.03830000       0.99490000
H       -1.96930000      -0.18580000       0.76710000
H       -3.81190000      -1.10690000      -0.84680000
H       -3.06690000      -1.71610000      -2.37040000
H       -1.38620000      -2.43590000       1.19410000
H        0.20960000      -2.42860000      -1.41990000
H        0.87560000      -2.62540000       0.21720000
H       -1.05000000      -4.35910000      -0.84430000
