19
Properties=species:S:1:pos:R:3 gdb_42124=T pbc="F F F"
C       -0.06830000       1.45900000       0.49090000
C        1.39000000       1.89770000       0.31830000
O        2.30210000       1.00830000       0.97260000
C        3.30390000       0.43890000       0.13680000
C        2.65040000      -0.28720000      -0.95560000
C        1.76370000      -0.64100000      -1.69230000
C        0.40280000      -0.76930000      -2.22040000
O       -0.42450000       0.20730000      -1.59730000
C       -0.48400000       0.13920000      -0.16810000
H       -0.28800000       1.37520000       1.56290000
H       -0.70290000       2.26470000       0.10000000
H        1.62430000       1.98110000      -0.74730000
H        1.51650000       2.89060000       0.76970000
H        3.98220000       1.21100000      -0.25900000
H        3.89500000      -0.21810000       0.78210000
H        0.34920000      -0.56660000      -3.29450000
H        0.01500000      -1.78690000      -2.05630000
H        0.14440000      -0.67330000       0.20950000
H       -1.52320000      -0.08250000       0.10860000
