21
Properties=species:S:1:pos:R:3 gdb_54913=T pbc="F F F"
C       -0.35790000       1.60600000      -0.14330000
C        0.02740000       0.13810000       0.00500000
C       -1.17540000      -0.78550000      -0.17670000
C        1.27470000      -0.30660000      -0.82950000
N        1.90910000      -0.75920000       0.41100000
C        0.86730000      -0.19720000       1.28200000
C        3.26920000      -0.80100000       0.60050000
N        3.65490000      -0.84640000       1.93520000
O        4.06330000      -0.77330000      -0.32250000
H        0.50730000       2.26290000      -0.00890000
H       -0.77490000       1.80130000      -1.13780000
H       -1.11560000       1.89080000       0.59570000
H       -1.61590000      -0.66200000      -1.17230000
H       -0.88810000      -1.83610000      -0.06510000
H       -1.95450000      -0.56750000       0.56260000
H        1.10320000      -1.10190000      -1.56230000
H        1.82250000       0.50810000      -1.31570000
H        1.19930000       0.67930000       1.85230000
H        0.41140000      -0.91850000       1.97190000
H        3.02310000      -1.28130000       2.59070000
H        4.62050000      -1.11440000       2.05040000
