12
Properties=species:S:1:pos:R:3 gdb_25424=T pbc="F F F"
O       -0.10150000      -0.01360000      -0.00020000
C       -0.00680000       1.18760000       0.00870000
C        1.25590000       1.94110000       0.00100000
C        1.37250000       3.32130000       0.01110000
N        2.70610000       3.57820000      -0.00100000
C        3.35020000       2.35930000      -0.01890000
N        2.49980000       1.35950000      -0.01780000
C        4.76840000       2.27260000      -0.03540000
N        5.92520000       2.25410000      -0.04830000
H       -0.90670000       1.84410000       0.02420000
H        0.63520000       4.10770000       0.02590000
H        3.14930000       4.48400000       0.00200000
