20
Properties=species:S:1:pos:R:3 gdb_82205=T pbc="F F F"
C        0.05280000       1.61320000      -0.01030000
C        0.06620000       0.08110000       0.00150000
C        0.76520000      -0.58320000      -1.18790000
C        2.22290000      -0.42690000      -1.42440000
N        1.72270000      -1.61360000      -0.71750000
C        1.71660000      -1.56210000       0.74280000
C        2.16730000      -0.33450000       1.52490000
C        0.70660000      -0.57010000       1.24210000
O       -0.14640000      -0.89640000       2.29880000
H        1.06640000       2.02550000       0.00560000
H       -0.44860000       1.99640000      -0.90460000
H       -0.48300000       2.00560000       0.86130000
H       -0.97160000      -0.27210000       0.00620000
H        0.13450000      -0.87220000      -2.02520000
H        2.62350000      -0.63410000      -2.41330000
H        2.78080000       0.32620000      -0.87840000
H        1.83470000      -2.52760000       1.22070000
H        2.48560000      -0.54210000       2.54180000
H        2.70510000       0.47910000       1.05310000
H       -0.20170000      -0.13450000       2.88540000
