12
Properties=species:S:1:pos:R:3 gdb_131976=T pbc="F F F"
N        0.00240000       1.41870000       0.14480000
C       -0.00320000       0.06570000       0.04460000
C       -1.07430000      -0.79700000       0.01830000
O       -0.66950000      -2.08600000      -0.02750000
N        0.70280000      -2.09450000      -0.03960000
C        1.09800000      -0.84550000       0.00420000
N       -2.45450000      -0.50670000       0.01030000
O       -2.74270000       0.70140000       0.04130000
O       -3.25650000      -1.42760000      -0.03020000
H        0.82410000       1.91860000      -0.15040000
H       -0.89220000       1.86530000       0.00120000
H        2.15550000      -0.62230000       0.00690000
