21
Properties=species:S:1:pos:R:3 gdb_116491=T pbc="F F F"
O        0.24480000       1.32640000      -0.44120000
C        0.12690000      -0.04900000      -0.16130000
C       -1.32290000      -0.43960000       0.13670000
O       -2.05510000      -0.00120000      -1.00520000
C       -3.45860000       0.09960000      -0.84370000
C       -4.17720000      -1.24250000      -0.96940000
C       -3.96910000      -2.20540000       0.20920000
C       -2.55100000      -2.65330000       0.47320000
C       -1.44230000      -1.91420000       0.44580000
H       -0.46270000       1.51490000      -1.07070000
H        0.49120000      -0.67050000      -0.99650000
H        0.75060000      -0.26280000       0.71300000
H       -1.66030000       0.15000000       1.00840000
H       -3.69570000       0.57540000       0.12290000
H       -3.79970000       0.77430000      -1.63630000
H       -5.25160000      -1.04290000      -1.07190000
H       -3.84790000      -1.71910000      -1.89960000
H       -4.36650000      -1.73770000       1.12400000
H       -4.59090000      -3.09240000       0.04600000
H       -2.44170000      -3.70030000       0.74960000
H       -0.50240000      -2.40130000       0.70210000
