15
Properties=species:S:1:pos:R:3 gdb_42924=T pbc="F F F"
O       -0.26080000      -0.00240000      -0.03880000
C       -0.18320000       1.18490000       0.03430000
C       -1.17030000       2.34200000      -0.08930000
O       -0.89700000       3.16900000       1.06530000
C       -0.03300000       3.29640000      -0.05690000
C        1.02820000       2.18980000       0.09390000
C        1.90950000       2.22180000       1.30880000
C        3.12530000       1.40420000       1.39440000
O        3.20620000       2.80750000       1.14080000
H       -2.15720000       2.40590000      -0.53050000
H        0.04560000       4.26230000      -0.53940000
H        1.63270000       2.05000000      -0.80960000
H        1.40520000       2.49990000       2.23280000
H        3.48690000       1.08020000       2.36870000
H        3.39850000       0.76000000       0.55970000
