14
Properties=species:S:1:pos:R:3 gdb_125769=T pbc="F F F"
C       -0.03030000       1.48220000       0.02830000
C       -0.01340000      -0.01250000      -0.01410000
N       -0.05730000      -0.56790000      -1.16890000
O       -0.04090000      -1.98290000      -1.17360000
C        0.01280000      -2.64510000      -0.00080000
N       -0.01420000      -3.97760000      -0.19910000
N        0.06630000      -2.13870000       1.18970000
C        0.05700000      -0.76560000       1.28530000
O        0.10420000      -0.15580000       2.33390000
H        0.86440000       1.84460000       0.54300000
H       -0.07940000       1.89780000      -0.97880000
H       -0.88620000       1.82260000       0.61860000
H        0.08470000      -4.35030000      -1.12720000
H        0.13930000      -4.56760000       0.60030000
