19
Properties=species:S:1:pos:R:3 gdb_124851=T pbc="F F F"
C       -0.19930000       1.38870000       0.57570000
C        0.01670000      -0.01910000       0.03830000
C        1.36330000      -0.33600000      -0.57270000
C        0.99950000      -0.90350000       0.77790000
C       -1.19570000      -0.65430000      -0.54950000
C       -1.51330000      -0.82410000      -1.88410000
N       -2.73530000      -1.40930000      -1.92350000
N       -3.25240000      -1.63860000      -0.70190000
C       -2.32360000      -1.17960000       0.13080000
H        0.72420000       1.79190000       1.00440000
H       -0.52880000       2.06620000      -0.21960000
H       -0.96620000       1.39880000       1.35790000
H        1.39930000      -1.02020000      -1.41300000
H        2.09920000       0.46010000      -0.61280000
H        1.48840000      -0.49240000       1.65500000
H        0.78300000      -1.96390000       0.83910000
H       -0.97030000      -0.57690000      -2.78270000
H       -3.26130000      -1.68570000      -2.73470000
H       -2.48370000      -1.24370000       1.19770000
