19
Properties=species:S:1:pos:R:3 gdb_70259=T pbc="F F F"
C       -0.51520000       1.58900000       0.45830000
C       -0.02470000       0.19480000       0.19420000
C       -0.85950000      -1.03380000       0.47010000
C        0.43840000      -0.79250000       1.22920000
C        1.70090000      -1.42100000       0.67300000
C        1.64280000      -1.03900000      -0.83640000
O        0.83990000       0.14490000      -0.92180000
C        2.94640000      -0.80640000      -1.44370000
C        4.03190000      -0.64940000      -1.93380000
H        0.32720000       2.27040000       0.61390000
H       -1.10090000       1.96080000      -0.38880000
H       -1.15110000       1.60930000       1.34750000
H       -1.78290000      -0.89080000       1.02110000
H       -0.90390000      -1.82720000      -0.26870000
H        0.39510000      -0.56590000       2.28840000
H        2.58120000      -0.97230000       1.14190000
H        1.76410000      -2.50570000       0.79720000
H        1.14330000      -1.84750000      -1.39050000
H        4.98760000      -0.50130000      -2.37230000
