21
Properties=species:S:1:pos:R:3 gdb_103537=T pbc="F F F"
C       -0.05020000       1.59280000       0.02760000
C        0.02520000       0.05980000       0.00820000
C       -1.40100000      -0.51970000      -0.04400000
O       -1.99810000      -0.13780000      -1.27520000
C        0.84690000      -0.48840000      -1.14730000
C        1.63580000      -1.49650000      -0.77710000
C        1.49030000      -1.80840000       0.69420000
C        0.77560000      -0.54780000       1.24540000
O        1.70570000       0.35500000       1.82420000
H        0.94130000       2.04820000      -0.02590000
H       -0.63900000       1.94290000      -0.82370000
H       -0.52660000       1.94890000       0.94660000
H       -1.35820000      -1.61640000       0.04650000
H       -1.97880000      -0.13440000       0.81230000
H       -2.89260000      -0.48890000      -1.29880000
H        0.74580000      -0.10070000      -2.15400000
H        2.28310000      -2.06200000      -1.43870000
H        0.89470000      -2.71850000       0.84930000
H        2.43910000      -1.96480000       1.21920000
H        0.08000000      -0.78330000       2.05690000
H        2.37430000       0.54680000       1.15660000
