19
Properties=species:S:1:pos:R:3 gdb_103026=T pbc="F F F"
C       -1.47720000      -0.34890000       0.00950000
N       -0.04300000      -0.05910000      -0.00650000
C        0.66580000      -0.55230000      -1.16900000
C        0.15500000       0.06600000      -2.40820000
N       -0.30510000       0.60790000      -3.32150000
C        2.22610000      -0.69120000      -1.05740000
C        1.98190000      -1.86520000      -0.06380000
C        0.98170000      -2.09160000      -1.23590000
C        2.15110000      -1.74290000      -2.20110000
H       -2.02170000       0.03240000      -0.86810000
H       -1.62810000      -1.43190000       0.06020000
H       -1.91570000       0.09100000       0.90880000
H        0.10780000       0.94090000       0.07960000
H        2.92590000       0.13950000      -0.95980000
H        2.79120000      -2.59430000       0.00780000
H        1.55880000      -1.60960000       0.90460000
H        0.24420000      -2.88650000      -1.34780000
H        1.89240000      -1.38630000      -3.19950000
H        2.96800000      -2.46550000      -2.23180000
