23
Properties=species:S:1:pos:R:3 gdb_109307=T pbc="F F F"
C        0.12790000       1.77160000      -0.14330000
C        0.01520000       0.23670000      -0.07340000
C        0.68220000      -0.45870000      -1.22690000
C        1.89920000      -1.00570000      -1.24150000
C        2.26220000      -1.61220000      -2.57430000
C        1.15910000      -1.05820000      -3.50480000
C       -0.01530000      -0.66420000      -2.56900000
C       -1.08070000      -1.76880000      -2.47630000
O       -0.63830000       0.56360000      -2.96120000
H        1.17750000       2.08200000      -0.12510000
H       -0.32110000       2.14700000      -1.06460000
H       -0.37860000       2.23470000       0.71000000
H        0.45850000      -0.11690000       0.86490000
H       -1.04670000      -0.03700000      -0.04050000
H        2.56180000      -1.04780000      -0.38230000
H        3.27110000      -1.34190000      -2.90690000
H        2.24180000      -2.71050000      -2.52760000
H        1.50600000      -0.13920000      -3.98600000
H        0.86160000      -1.76010000      -4.29020000
H       -0.63190000      -2.72650000      -2.19560000
H       -1.84730000      -1.51540000      -1.73830000
H       -1.57490000      -1.90460000      -3.44710000
H       -1.19770000       0.38140000      -3.72350000
