20
Properties=species:S:1:pos:R:3 gdb_6939=T pbc="F F F"
C        0.12040000       1.32910000      -0.14910000
O        0.24690000      -0.06960000      -0.08770000
C        0.46640000      -0.54110000       1.22740000
C        0.52690000      -2.04370000       1.18890000
C        1.81050000      -2.77280000       0.83210000
C        1.23400000      -2.87130000       2.22460000
C        1.95540000      -2.26900000       3.41040000
O        0.53150000      -4.05000000       2.54060000
H        1.03180000       1.84090000       0.20150000
H       -0.05280000       1.59770000      -1.19420000
H       -0.72630000       1.69260000       0.45580000
H        1.40090000      -0.11520000       1.62980000
H       -0.35030000      -0.20390000       1.88970000
H       -0.38130000      -2.50610000       0.81480000
H        1.73000000      -3.64410000       0.19220000
H        2.70560000      -2.17610000       0.68500000
H        2.48140000      -1.34770000       3.14840000
H        1.25200000      -2.05210000       4.22080000
H        2.70340000      -2.97350000       3.79520000
H        1.18200000      -4.72790000       2.75650000
