17
Properties=species:S:1:pos:R:3 gdb_11360=T pbc="F F F"
C        0.02690000       1.54610000       0.21920000
C       -0.01640000       0.04130000      -0.10170000
C       -1.39930000      -0.52570000      -0.12260000
C       -2.10540000      -1.04820000      -1.13460000
C       -3.46130000      -1.46580000      -0.63160000
C       -3.41920000      -1.10200000       0.86290000
O       -4.27130000      -1.25480000       1.70670000
N       -2.16700000      -0.54650000       1.06070000
H        1.05860000       1.90920000       0.22100000
H       -0.53750000       2.11740000      -0.52350000
H       -0.40370000       1.76330000       1.20200000
H        0.44090000      -0.14310000      -1.07840000
H        0.58940000      -0.50360000       0.63550000
H       -1.75640000      -1.15060000      -2.15110000
H       -4.29580000      -0.93810000      -1.10880000
H       -3.66930000      -2.53700000      -0.73890000
H       -1.85630000      -0.23350000       1.96550000
