14
Properties=species:S:1:pos:R:3 gdb_131159=T pbc="F F F"
O       -0.70370000       1.36060000       0.22790000
C       -0.21910000       0.09030000       0.13970000
C        0.22080000      -0.48180000      -1.03780000
C        0.26520000       0.08770000      -2.42580000
C        1.14150000      -0.67840000      -3.31160000
N        1.82420000      -1.32190000      -3.98590000
N        0.60640000      -1.74450000      -0.70240000
N        0.45880000      -2.02070000       0.59850000
C       -0.05250000      -0.90650000       1.12390000
H       -0.89190000       1.56190000       1.14930000
H       -0.73550000       0.11820000      -2.87760000
H        0.61300000       1.12630000      -2.38660000
H        1.01980000      -2.43080000      -1.31350000
H       -0.27910000      -0.85690000       2.17930000
