21
Properties=species:S:1:pos:R:3 gdb_78517=T pbc="F F F"
C       -0.29330000       1.61790000      -0.19000000
C       -0.08420000       0.11240000      -0.11340000
C        1.10740000      -0.55710000      -0.84060000
C        2.11110000      -0.26660000       0.33090000
C        3.16650000       0.77820000       0.51590000
O        2.54180000      -1.66220000       0.44900000
C        1.11290000      -1.75420000       0.16760000
C        0.47760000      -3.10360000       0.07310000
C        0.73380000      -0.51310000       1.04270000
H        0.63060000       2.17760000      -0.01940000
H       -0.67860000       1.90830000      -1.17380000
H       -1.02280000       1.94860000       0.55780000
H       -1.03610000      -0.40390000      -0.29020000
H        1.34370000      -0.60380000      -1.90550000
H        2.75770000       1.78600000       0.41160000
H        3.61400000       0.68650000       1.51070000
H        3.95870000       0.64630000      -0.22790000
H        0.59830000      -3.65080000       1.01320000
H       -0.59230000      -3.01010000      -0.13820000
H        0.93880000      -3.68950000      -0.72810000
H        0.54550000      -0.50990000       2.11810000
