18
Properties=species:S:1:pos:R:3 gdb_74934=T pbc="F F F"
C        0.03260000       1.46800000       0.05060000
C        0.01650000      -0.02620000      -0.01730000
C       -0.09930000      -0.78170000      -1.11620000
C        0.05380000      -2.25340000      -0.86600000
N        1.44410000      -2.39700000      -0.25600000
C        0.78890000      -2.25080000       1.05990000
C       -0.59940000      -2.64700000       0.56330000
O       -1.25880000      -1.58700000       1.23620000
C        0.02720000      -0.86150000       1.24040000
H        0.96590000       1.83400000       0.49750000
H       -0.06050000       1.91270000      -0.94410000
H       -0.78600000       1.84810000       0.67470000
H       -0.22470000      -0.38250000      -2.11690000
H       -0.14450000      -2.89460000      -1.72480000
H        1.71890000      -3.37700000      -0.33200000
H        1.30420000      -2.63310000       1.94220000
H       -1.10330000      -3.61310000       0.64110000
H        0.17190000      -0.31120000       2.17160000
