23
Properties=species:S:1:pos:R:3 gdb_59646=T pbc="F F F"
C        0.02490000       1.55960000      -0.17600000
C        0.02610000       0.06040000       0.13030000
O        0.60150000      -0.20950000       1.40060000
C       -1.38510000      -0.54410000       0.06580000
C       -1.44350000      -2.06810000       0.19340000
C       -2.79480000      -2.30010000       0.88690000
C       -2.94870000      -3.64610000       1.59070000
C       -2.85100000      -1.08780000       1.82840000
O       -2.12470000      -0.03380000       1.19240000
H        1.03260000       1.96650000      -0.05960000
H       -0.31380000       1.75320000      -1.19970000
H       -0.64690000       2.08660000       0.50910000
H        0.65670000      -0.46160000      -0.60040000
H       -0.05840000       0.09280000       2.03880000
H       -1.88120000      -0.21320000      -0.85960000
H       -1.36210000      -2.57170000      -0.77340000
H       -0.62210000      -2.40870000       0.83400000
H       -3.59250000      -2.19300000       0.14010000
H       -2.15590000      -3.79200000       2.33320000
H       -3.91130000      -3.71960000       2.10830000
H       -2.89420000      -4.47360000       0.87630000
H       -3.87250000      -0.74320000       2.02530000
H       -2.38200000      -1.32810000       2.79510000
