20
Properties=species:S:1:pos:R:3 gdb_54829=T pbc="F F F"
C        0.12820000       1.33950000      -0.85340000
C        0.02280000       0.29020000       0.24150000
O        0.93710000       0.09400000       1.01650000
C       -1.28290000      -0.44540000       0.27110000
N       -1.49500000      -1.88730000       0.61210000
C       -0.54900000      -2.26670000       1.72920000
C       -1.13620000      -1.19080000       2.67160000
C       -2.05320000      -0.81010000       1.50340000
C       -3.52120000      -0.51850000       1.62760000
H        1.07080000       1.87870000      -0.75620000
H        0.07760000       0.86040000      -1.83830000
H       -0.71140000       2.04190000      -0.79890000
H       -1.92370000      -0.18970000      -0.56940000
H       -0.78340000      -3.29020000       2.02890000
H        0.50700000      -2.18410000       1.47890000
H       -1.69700000      -1.60730000       3.51140000
H       -0.45310000      -0.42170000       3.03280000
H       -3.68470000       0.47220000       2.06740000
H       -4.01180000      -0.54540000       0.65050000
H       -4.00880000      -1.25670000       2.27350000
