17
Properties=species:S:1:pos:R:3 gdb_45469=T pbc="F F F"
O        0.03010000      -0.10560000      -0.13380000
C       -0.01360000       1.10320000      -0.03960000
C       -1.32760000       1.86890000       0.07570000
C       -1.32170000       3.21220000      -0.66770000
C       -1.87670000       4.42700000       0.11000000
O       -0.54670000       4.93500000       0.35970000
C        0.01450000       3.98460000      -0.58430000
C        1.21830000       3.24930000      -0.09510000
C        1.21730000       1.92360000       0.08150000
H       -2.14120000       1.21860000      -0.25260000
H       -1.46830000       2.04440000       1.15100000
H       -1.70510000       3.09070000      -1.68210000
H       -2.46820000       5.12470000      -0.49730000
H       -2.41450000       4.21150000       1.04030000
H        0.26770000       4.49860000      -1.52450000
H        2.12580000       3.83160000       0.04960000
H        2.12090000       1.37630000       0.33280000
