19
Properties=species:S:1:pos:R:3 gdb_126690=T pbc="F F F"
C       -0.07670000       1.49500000       0.07260000
C       -0.04020000      -0.03860000       0.02800000
N       -1.34940000      -0.67610000       0.02950000
C       -2.09940000      -0.70830000      -1.21170000
C       -2.01730000      -0.79550000       1.21850000
N       -1.45600000      -0.50710000       2.39460000
N       -2.45820000      -0.83980000       3.26360000
C       -3.53390000      -1.27550000       2.59390000
N       -3.30590000      -1.26280000       1.29520000
H        0.94100000       1.89860000       0.05500000
H       -0.61600000       1.90890000      -0.78560000
H       -0.56470000       1.83810000       0.98850000
H        0.48360000      -0.37550000      -0.87420000
H        0.51560000      -0.41670000       0.89030000
H       -1.45620000      -1.09260000      -2.01040000
H       -2.95770000      -1.36960000      -1.09670000
H       -2.47050000       0.28210000      -1.51780000
H       -2.31970000      -0.72200000       4.25240000
H       -4.44830000      -1.58750000       3.07650000
