20
Properties=species:S:1:pos:R:3 gdb_112947=T pbc="F F F"
C        0.23070000       1.60970000      -0.74710000
N       -0.16310000       0.20360000      -0.43310000
H       -0.34360000       0.10740000       0.56960000
H       -1.03750000      -0.03060000      -0.90890000
C        0.89080000      -0.82940000      -0.82660000
C        2.18690000      -0.86140000      -0.01000000
C        2.15650000      -2.40760000      -0.25490000
C        0.60900000      -2.28970000      -0.46260000
C        2.88910000      -2.78380000      -1.60870000
O        3.69870000      -3.70970000      -1.52790000
O        2.53540000      -2.07300000      -2.58800000
H        1.16630000       1.81980000      -0.22950000
H        0.38340000       1.68550000      -1.82350000
H       -0.55110000       2.29660000      -0.42030000
H        1.11300000      -0.73810000      -1.89180000
H        3.03820000      -0.30360000      -0.40140000
H        2.01440000      -0.60590000       1.04600000
H        2.49170000      -3.03850000       0.56650000
H        0.05730000      -2.38030000       0.48430000
H        0.14850000      -2.91210000      -1.23070000
