21
Properties=species:S:1:pos:R:3 gdb_92846=T pbc="F F F"
O        0.03730000       1.44570000      -0.12040000
C        0.03510000       0.02580000      -0.03480000
C        0.83020000      -0.46230000       1.19620000
C        0.50040000      -1.87890000       1.61130000
C       -0.46940000      -2.54160000       0.99630000
C       -1.37580000      -3.72410000       1.26980000
C       -2.52130000      -2.86310000       0.63250000
C       -1.42510000      -1.95910000      -0.02240000
C       -1.42880000      -0.43510000      -0.00020000
H        0.95350000       1.74120000      -0.13160000
H        0.49780000      -0.40400000      -0.93970000
H        1.90720000      -0.35150000       1.00100000
H        0.60650000       0.22010000       2.02940000
H        1.02710000      -2.29300000       2.46830000
H       -1.14100000      -4.59740000       0.65050000
H       -1.49140000      -4.05240000       2.30590000
H       -3.21860000      -3.37170000      -0.03700000
H       -3.08410000      -2.32120000       1.39710000
H       -1.20920000      -2.32840000      -1.03430000
H       -1.89640000      -0.06810000       0.92180000
H       -1.96740000       0.00790000      -0.84390000
