19
Properties=species:S:1:pos:R:3 gdb_33532=T pbc="F F F"
C       -0.10320000      -1.29430000       0.06350000
C       -0.08230000      -0.09160000       0.05420000
C       -0.04190000       1.35920000       0.05770000
C       -0.05040000       2.03830000       1.46540000
O        1.15980000       2.75870000       1.17500000
C        1.38030000       2.00190000      -0.02780000
C       -1.02980000       2.00060000      -0.90460000
C       -1.35320000       1.39430000      -2.24510000
C       -2.39740000       1.42090000      -1.15530000
H       -0.11840000      -2.35630000       0.07500000
H       -0.89750000       2.70500000       1.66080000
H        0.07270000       1.33850000       2.30050000
H        2.20270000       1.28440000       0.07760000
H        1.55530000       2.64270000      -0.89900000
H       -0.97040000       3.08560000      -0.87410000
H       -1.46630000       2.06090000      -3.09270000
H       -0.91190000       0.43250000      -2.48150000
H       -2.63790000       0.47640000      -0.68000000
H       -3.23250000       2.10580000      -1.24920000
