17
Properties=species:S:1:pos:R:3 gdb_66477=T pbc="F F F"
O       -0.03810000       1.29790000       0.06030000
C        0.06880000      -0.07380000       0.03590000
C       -1.05390000      -1.06850000       0.12680000
C       -0.27010000      -0.94990000      -1.17530000
C        0.63570000      -2.16440000      -0.88910000
O        0.52520000      -3.20970000      -1.79230000
C        1.98870000      -1.62060000      -0.35400000
C        1.11160000      -0.97710000       0.74710000
C        0.01920000      -2.10370000       0.57520000
H        0.59360000       1.66720000      -0.56740000
H       -2.10880000      -0.94540000       0.32860000
H       -0.58210000      -0.54260000      -2.12820000
H        1.07760000      -3.93600000      -1.48390000
H        2.61380000      -2.42720000       0.04780000
H        2.58950000      -0.97410000      -1.00270000
H        1.50300000      -0.66800000       1.71450000
H       -0.10250000      -2.94840000       1.24900000
