19
Properties=species:S:1:pos:R:3 gdb_80985=T pbc="F F F"
O       -0.03770000       1.38270000      -0.02330000
C        0.01080000      -0.02410000       0.00040000
C       -1.41350000      -0.63720000      -0.11940000
C       -1.27540000      -0.45460000      -1.66360000
C        0.25350000      -0.62520000      -1.41530000
O        1.19530000       0.09060000      -2.18100000
C        0.55350000      -2.09980000      -1.25140000
C       -0.23420000      -2.81550000      -0.44850000
C       -1.38270000      -2.12840000       0.25880000
H        0.65650000       1.66200000      -0.63450000
H        0.65800000      -0.39460000       0.80650000
H       -2.21220000      -0.08990000       0.38300000
H       -1.76200000      -1.17800000      -2.32200000
H       -1.51810000       0.56850000      -1.95350000
H        0.93900000       0.04550000      -3.10740000
H        1.41030000      -2.51040000      -1.77620000
H       -0.07480000      -3.87700000      -0.28300000
H       -1.27680000      -2.24100000       1.34690000
H       -2.33630000      -2.60990000       0.00040000
