18
Properties=species:S:1:pos:R:3 gdb_42469=T pbc="F F F"
O       -0.16110000      -0.07180000      -0.26360000
C       -0.01390000       1.10560000      -0.05500000
C        1.30880000       1.82990000      -0.00420000
C        2.51340000       0.92540000      -0.27670000
C        3.82300000       1.67900000      -0.19170000
C        4.49480000       1.89200000       1.14390000
C        5.10070000       0.95040000       0.13170000
C       -1.19760000       1.96800000       0.18180000
N       -2.11020000       2.65330000       0.36750000
H        1.25670000       2.66340000      -0.71950000
H        1.38530000       2.31240000       0.98080000
H        2.51140000       0.09920000       0.44310000
H        2.40060000       0.46370000      -1.26440000
H        3.91440000       2.49910000      -0.90050000
H        4.99070000       2.83760000       1.33200000
H        4.02850000       1.45460000       2.02130000
H        5.03870000      -0.11440000       0.33110000
H        6.00970000       1.25360000      -0.37540000
