20
Properties=species:S:1:pos:R:3 gdb_121510=T pbc="F F F"
C        0.00160000       1.48900000       0.12720000
C        0.14530000      -0.03140000       0.02970000
C        0.59930000      -0.49110000      -1.36070000
N        0.81420000      -1.92650000      -1.39100000
C        0.12320000      -2.60450000      -2.18830000
O        0.24740000      -3.95280000      -2.23240000
C       -0.44730000      -4.63500000      -3.25920000
C       -0.85820000      -6.00450000      -2.73820000
O       -1.28020000      -6.87620000      -3.44810000
H        0.95280000       1.99160000      -0.07990000
H       -0.73540000       1.86870000      -0.58950000
H       -0.32270000       1.79150000       1.12730000
H        0.86880000      -0.39500000       0.76780000
H       -0.80910000      -0.51680000       0.26830000
H       -0.13240000      -0.15800000      -2.11890000
H        1.55280000      -0.00240000      -1.60130000
H       -0.62310000      -2.19860000      -2.89000000
H       -1.35730000      -4.09520000      -3.56130000
H        0.18020000      -4.75930000      -4.15080000
H       -0.74210000      -6.11910000      -1.63880000
