23
Properties=species:S:1:pos:R:3 gdb_93010=T pbc="F F F"
C       -0.00070000       1.56550000       0.01640000
C        0.02350000       0.03530000      -0.00250000
C        0.69550000      -0.50790000      -1.27660000
C        0.95530000      -1.99090000      -1.20700000
C        0.91720000      -2.68630000      -0.06920000
C        0.65680000      -2.06530000       1.25250000
C       -0.34430000      -2.75280000       2.17060000
C        1.12270000      -2.79440000       2.49550000
C        0.72250000      -0.54560000       1.23760000
H        1.01680000       1.97370000       0.04590000
H       -0.49310000       1.96740000      -0.87580000
H       -0.53620000       1.94460000       0.89350000
H       -1.01370000      -0.32840000       0.00360000
H        0.07020000      -0.28160000      -2.15040000
H        1.64170000       0.02880000      -1.45200000
H        1.17580000      -2.50110000      -2.14140000
H        1.08520000      -3.76160000      -0.08160000
H       -0.98760000      -2.11960000       2.77320000
H       -0.81900000      -3.66190000       1.81740000
H        1.65170000      -3.73330000       2.36790000
H        1.48230000      -2.19120000       3.32300000
H        1.77530000      -0.22750000       1.23080000
H        0.27840000      -0.13790000       2.15350000
