23
Properties=species:S:1:pos:R:3 gdb_108220=T pbc="F F F"
C        0.10800000       1.65270000       0.28210000
C        0.14600000       0.13970000       0.36200000
C        1.25930000      -0.75730000      -0.13700000
C        1.02360000      -1.86690000      -1.12420000
C        2.62600000      -0.10500000       0.12670000
C        2.28860000      -0.03160000       1.64940000
C        0.92460000      -0.67850000       1.36490000
C        0.30050000      -1.69800000       2.28560000
O       -0.88120000      -2.29900000       1.77240000
H        1.07900000       2.10940000       0.48910000
H       -0.20290000       1.98200000      -0.71570000
H       -0.60700000       2.06640000       1.00260000
H       -0.81970000      -0.31660000       0.14760000
H        1.01140000      -1.49210000      -2.15560000
H        1.81140000      -2.62720000      -1.06210000
H        0.06860000      -2.36300000      -0.92930000
H        3.45600000      -0.78690000      -0.07650000
H        2.82960000       0.84070000      -0.38670000
H        2.93890000      -0.67890000       2.24450000
H        2.27650000       0.95870000       2.11650000
H        1.00090000      -2.52600000       2.45140000
H        0.11500000      -1.24120000       3.27290000
H       -1.57370000      -1.63120000       1.78070000
