19
Properties=species:S:1:pos:R:3 gdb_74547=T pbc="F F F"
C        0.21660000       1.39200000      -0.09930000
C       -0.03330000      -0.08250000      -0.08780000
C       -0.28540000      -0.88300000      -1.14250000
C       -0.18420000      -2.26730000      -0.57110000
C        0.97050000      -2.95540000      -0.62630000
C        1.54640000      -3.13460000       0.77490000
C        0.58130000      -2.28550000       1.61090000
C       -0.08610000      -0.87470000       1.21410000
C       -0.69730000      -2.18770000       0.86550000
H        1.21840000       1.62340000       0.28510000
H        0.13480000       1.80630000      -1.10780000
H       -0.49420000       1.92530000       0.54580000
H       -0.26880000      -0.60040000      -2.18680000
H        1.62010000      -2.96270000      -1.49620000
H        1.59380000      -4.16260000       1.16860000
H        2.57950000      -2.76150000       0.77010000
H        0.58070000      -2.42780000       2.68890000
H       -0.40660000      -0.33540000       2.10230000
H       -1.68090000      -2.53980000       1.16260000
