13
Properties=species:S:1:pos:R:3 gdb_61111=T pbc="F F F"
O        0.08910000       1.42140000      -0.08370000
C        0.03390000       0.01160000      -0.00180000
C        0.71110000      -0.51210000      -1.29970000
C        0.05730000      -0.03270000      -2.51380000
N       -0.44370000       0.32890000      -3.48890000
C        0.75680000      -0.50530000       1.16870000
C        1.36410000      -0.90460000       2.12390000
C       -1.37740000      -0.45290000       0.06540000
N       -2.47800000      -0.79480000       0.13760000
H       -0.28500000       1.79360000       0.72400000
H        1.74780000      -0.16460000      -1.28050000
H        0.71680000      -1.60510000      -1.28820000
H        1.89360000      -1.25940000       2.97500000
