18
Properties=species:S:1:pos:R:3 gdb_16253=T pbc="F F F"
O       -0.23710000       1.40770000       0.52420000
C       -0.01540000       0.09300000       0.01990000
C        0.73570000      -0.79680000       1.02830000
C       -0.41900000      -1.31290000       1.89050000
O       -1.46200000      -1.57170000       0.95830000
C       -1.36490000      -0.61540000      -0.08130000
C       -2.60720000       0.11110000      -0.49950000
C       -2.01780000      -0.97700000      -1.38020000
H        0.61840000       1.84550000       0.58280000
H        0.49030000       0.13900000      -0.95330000
H        1.21840000      -1.63040000       0.50750000
H        1.49630000      -0.24380000       1.58630000
H       -0.20240000      -2.24370000       2.42070000
H       -0.72530000      -0.54960000       2.62120000
H       -3.51220000      -0.12920000       0.04670000
H       -2.51100000       1.14640000      -0.80430000
H       -1.52940000      -0.69250000      -2.30660000
H       -2.53470000      -1.92990000      -1.41000000
