22
Properties=species:S:1:pos:R:3 gdb_119790=T pbc="F F F"
C       -0.08740000       1.59410000      -0.12410000
C       -0.02550000       0.06580000      -0.17820000
C       -1.36910000      -0.59570000       0.18440000
C       -1.33910000      -2.09450000       0.15480000
C       -1.59100000      -2.92190000       1.17680000
C       -1.56920000      -4.34680000       0.74240000
N       -2.62160000      -4.64650000      -0.27680000
C       -1.24290000      -4.32880000      -0.70890000
C       -1.04540000      -2.87560000      -1.12250000
H        0.87730000       2.04210000      -0.38210000
H       -0.83440000       1.98520000      -0.82400000
H       -0.36020000       1.94420000       0.87770000
H        0.28100000      -0.25190000      -1.18230000
H        0.74790000      -0.30040000       0.50830000
H       -1.68030000      -0.25890000       1.18070000
H       -2.13550000      -0.23190000      -0.51640000
H       -1.83810000      -2.60900000       2.18490000
H       -1.25430000      -5.14150000       1.41050000
H       -2.73870000      -5.65790000      -0.32800000
H       -0.65250000      -5.10900000      -1.17710000
H       -1.72280000      -2.58660000      -1.93580000
H       -0.02280000      -2.69920000      -1.48080000
