17
Properties=species:S:1:pos:R:3 gdb_66266=T pbc="F F F"
C       -0.13690000       1.57830000       0.00720000
C        0.03880000       0.05910000      -0.03640000
N        0.90450000      -0.40290000      -1.12030000
C        1.43610000      -1.72370000      -0.74100000
C        1.80650000      -1.52140000       0.73170000
C        0.81830000      -0.46690000       1.21790000
O        0.65540000      -0.06480000       2.33330000
C       -1.27910000      -0.61970000      -0.04830000
N       -2.28610000      -1.18630000      -0.10900000
H        0.84670000       2.05070000      -0.04020000
H       -0.73900000       1.92760000      -0.83540000
H       -0.63040000       1.86340000       0.93910000
H        0.43120000      -0.41450000      -2.01650000
H        0.69370000      -2.53070000      -0.84000000
H        2.29450000      -1.97110000      -1.36970000
H        1.74660000      -2.42060000       1.34800000
H        2.81490000      -1.10740000       0.84050000
