19
Properties=species:S:1:pos:R:3 gdb_10954=T pbc="F F F"
C        0.26110000       1.45930000       0.50570000
C       -0.04180000       0.01660000       0.23360000
C       -0.93480000      -0.81550000       1.05810000
N        0.51810000      -1.12190000       1.08440000
C        0.83980000      -1.85480000      -0.20390000
C        0.30750000      -3.27360000      -0.28150000
O        0.83440000      -4.06280000       0.76990000
C        0.26430000      -0.71320000      -1.08080000
H        1.27120000       1.72180000       0.17330000
H       -0.44610000       2.10990000      -0.02250000
H        0.18800000       1.67580000       1.57540000
H       -1.27830000      -0.40420000       2.00260000
H       -1.63350000      -1.50640000       0.59250000
H        1.93050000      -1.89810000      -0.26950000
H       -0.79480000      -3.28460000      -0.27660000
H        0.62560000      -3.73900000      -1.22190000
H        0.76130000      -3.53460000       1.57410000
H       -0.60230000      -0.94130000      -1.70950000
H        1.02210000      -0.22370000      -1.69550000
