20
Properties=species:S:1:pos:R:3 gdb_92160=T pbc="F F F"
C       -0.01610000       1.43270000       0.02080000
C        0.03530000      -0.07370000       0.02700000
C        0.72020000      -0.76300000      -1.09960000
C        0.81170000      -2.26950000      -0.92580000
C       -0.67130000      -2.19320000      -0.47440000
C       -0.82500000      -2.08420000       1.03640000
C       -0.03280000      -0.79550000       1.37060000
O        1.29460000      -1.02370000       1.83810000
N       -0.79410000      -0.75860000      -0.99910000
H        0.84400000       1.84450000       0.55940000
H       -0.00300000       1.82090000      -1.00100000
H       -0.92960000       1.79390000       0.50570000
H        1.23520000      -0.18510000      -1.86260000
H        0.91540000      -2.77440000      -1.88900000
H        1.54780000      -2.65990000      -0.21970000
H       -1.36680000      -2.87630000      -0.96190000
H       -1.88130000      -1.95560000       1.29760000
H       -0.43950000      -2.95450000       1.57720000
H       -0.57730000      -0.17630000       2.09730000
H        1.23800000      -1.36010000       2.73810000
