20
Properties=species:S:1:pos:R:3 gdb_61492=T pbc="F F F"
C       -0.18450000       1.63980000       0.11940000
C       -0.07480000       0.10710000       0.05320000
C        0.84550000      -0.48690000       1.14160000
C        2.30690000       0.01900000       1.12710000
C        3.14420000      -0.64850000       2.23590000
C        2.92700000      -0.19940000      -0.18490000
N        3.41440000      -0.37590000      -1.21820000
C       -1.45540000      -0.50150000       0.23270000
O       -1.97090000      -1.28830000      -0.51590000
H        0.77920000       2.11630000      -0.07790000
H       -0.88930000       2.01150000      -0.63020000
H       -0.53330000       1.97240000       1.10410000
H        0.28660000      -0.20290000      -0.93230000
H        0.43580000      -0.26280000       2.13500000
H        0.85680000      -1.57830000       1.04190000
H        2.30850000       1.10160000       1.29990000
H        4.16920000      -0.27040000       2.23520000
H        2.69770000      -0.43920000       3.21200000
H        3.17890000      -1.73260000       2.09690000
H       -1.98280000      -0.15710000       1.15610000
