12
Properties=species:S:1:pos:R:3 gdb_21343=T pbc="F F F"
N       -0.25730000      -0.90110000      -0.85280000
C       -0.09320000       0.09320000      -0.28980000
C        0.09140000       1.37160000       0.40320000
N        1.38500000       1.96970000       0.13570000
C        1.98370000       2.26780000      -1.04410000
C        3.16490000       2.85970000      -0.67360000
N        3.22840000       2.89680000       0.68770000
N        2.15490000       2.35890000       1.17950000
H       -0.71660000       2.05290000       0.11390000
H        0.03940000       1.22530000       1.48530000
H        1.54140000       2.03060000      -1.99700000
H        3.95820000       3.24990000      -1.28970000
