20
Properties=species:S:1:pos:R:3 gdb_86255=T pbc="F F F"
C       -0.17030000       1.56710000      -0.01330000
C        0.05620000       0.05200000      -0.01440000
C        0.94230000      -0.44350000      -1.19460000
N        1.83560000      -1.44710000      -0.59560000
C        2.95980000      -1.96490000      -1.33620000
C        1.78860000      -1.32530000       0.75690000
C        0.80970000      -0.49090000       1.19510000
C        0.48140000      -0.27090000       2.57520000
O       -0.43320000       0.42530000       2.98840000
H        0.78460000       2.10250000       0.02850000
H       -0.69980000       1.88540000      -0.91830000
H       -0.75970000       1.85240000       0.85980000
H       -0.92560000      -0.43790000      -0.06570000
H        0.37080000      -0.88030000      -2.01970000
H        1.54470000       0.38250000      -1.60620000
H        3.65890000      -1.16960000      -1.63970000
H        3.50340000      -2.68810000      -0.72340000
H        2.61540000      -2.47470000      -2.24240000
H        2.47940000      -1.89900000       1.36530000
H        1.15200000      -0.80370000       3.29110000
