22
Properties=species:S:1:pos:R:3 gdb_59804=T pbc="F F F"
C        1.20770000       0.40030000      -0.36860000
C       -0.15940000       0.49680000       0.32460000
C       -1.28350000      -0.11050000      -0.52760000
N       -0.12800000      -0.07020000       1.68010000
C        0.10480000      -1.27750000       1.89280000
O        0.37620000      -2.33350000       1.02460000
C        0.55910000      -3.25530000       2.14110000
C        0.22590000      -2.12820000       3.14630000
C        1.28630000      -1.71200000       4.15770000
H        1.47180000      -0.64170000      -0.56830000
H        1.19010000       0.94210000      -1.32010000
H        1.98840000       0.84020000       0.25930000
H       -0.38660000       1.56100000       0.46140000
H       -1.08990000      -1.16630000      -0.73610000
H       -2.24380000      -0.03160000      -0.00920000
H       -1.36630000       0.42150000      -1.48110000
H       -0.14450000      -4.08940000       2.08140000
H        1.58710000      -3.62800000       2.17360000
H       -0.74150000      -2.27040000       3.63710000
H        2.26340000      -1.59400000       3.67830000
H        1.01790000      -0.75370000       4.61070000
H        1.38310000      -2.45470000       4.95590000
