20
Properties=species:S:1:pos:R:3 gdb_87577=T pbc="F F F"
C        0.14220000       1.94680000       0.64390000
C       -0.04340000       0.45680000       0.52550000
O        1.12300000      -0.32140000       0.18210000
C        0.55600000      -0.49520000       1.46560000
C        1.32060000      -0.27600000       2.75040000
C        0.38900000      -0.40610000       3.89080000
N        0.91280000      -1.64110000       3.27980000
C        0.14040000      -1.87800000       1.99230000
C       -1.31370000      -2.29480000       2.11470000
H        1.03660000       2.18450000       1.22530000
H        0.24340000       2.40390000      -0.34580000
H       -0.72460000       2.40080000       1.13650000
H       -0.94140000       0.13750000      -0.00710000
H        2.33690000       0.09360000       2.82980000
H        0.78020000      -0.23680000       4.88940000
H       -0.65590000      -0.13320000       3.76590000
H        0.69940000      -2.63620000       1.43460000
H       -1.92230000      -1.55040000       2.63580000
H       -1.74810000      -2.44470000       1.12070000
H       -1.39030000      -3.24040000       2.66100000
