19
Properties=species:S:1:pos:R:3 gdb_106795=T pbc="F F F"
O        0.72840000      -0.17990000      -0.67410000
C       -0.15100000       0.32020000       0.33910000
C       -1.52210000      -0.32070000       0.29640000
C       -2.17640000      -0.71270000      -1.03410000
C       -1.73420000      -1.78280000      -0.06360000
O       -0.69810000      -2.65470000      -0.38600000
C       -2.77750000      -2.35430000       0.89160000
C       -3.20110000      -1.15130000       1.70710000
C       -2.50040000      -0.05720000       1.39640000
H        0.47310000       0.21980000      -1.51150000
H        0.33780000       0.08320000       1.29050000
H       -0.22470000       1.41600000       0.27480000
H       -3.22900000      -0.48710000      -1.17580000
H       -1.57190000      -0.63630000      -1.93420000
H        0.05830000      -2.10940000      -0.64720000
H       -3.61840000      -2.82190000       0.36530000
H       -2.32200000      -3.13350000       1.51610000
H       -3.99900000      -1.19540000       2.43980000
H       -2.62710000       0.92080000       1.84990000
