15
Properties=species:S:1:pos:R:3 gdb_25256=T pbc="F F F"
O        0.00960000      -0.06540000       0.00470000
C        0.03480000       1.14940000       0.01030000
N       -1.06280000       1.99940000       0.02880000
C       -0.75180000       3.42870000       0.03030000
C        0.75140000       3.39820000       0.00930000
C        1.16250000       2.08950000      -0.00180000
N        2.52450000       2.04960000      -0.02140000
C        2.98670000       3.34420000      -0.02220000
C        1.90740000       4.21370000      -0.00320000
H       -1.99800000       1.63060000       0.03900000
H       -1.18000000       3.93210000      -0.84730000
H       -1.15550000       3.92490000       0.92340000
H        3.08940000       1.21780000      -0.03300000
H        4.04540000       3.55070000      -0.03610000
H        1.97370000       5.29070000       0.00050000
