15
Properties=species:S:1:pos:R:3 gdb_32025=T pbc="F F F"
C       -0.08930000       1.48910000       0.03640000
N       -0.05340000       0.03550000      -0.00940000
C       -1.14800000      -0.74640000       0.00040000
C       -1.13220000      -2.13540000       0.02450000
C       -2.37880000      -2.75750000       0.01990000
N       -3.55610000      -2.15800000      -0.01240000
C       -3.60960000      -0.81260000      -0.04610000
O       -4.54030000      -0.07100000      -0.08770000
O       -2.29010000      -0.09280000      -0.02450000
H        0.88080000       1.87030000      -0.28690000
H       -0.86160000       1.86320000      -0.63700000
H       -0.30080000       1.86370000       1.04470000
H        0.83460000      -0.42880000       0.08200000
H       -0.20630000      -2.69180000       0.04690000
H       -2.41570000      -3.84650000       0.04510000
