18
Properties=species:S:1:pos:R:3 gdb_115087=T pbc="F F F"
C       -0.12400000       1.39770000       0.11190000
O       -0.06510000      -0.00420000      -0.07850000
C       -1.32570000      -0.65660000      -0.04230000
C       -1.13310000      -2.04250000      -0.66170000
N       -0.39630000      -2.99150000       0.16740000
C       -0.48680000      -2.83160000       1.42080000
N       -1.20520000      -1.83150000       2.07240000
C       -1.79220000      -0.76600000       1.40300000
N       -2.57910000       0.10400000       1.90290000
H        0.90270000       1.76490000       0.04230000
H       -0.73190000       1.87930000      -0.66870000
H       -0.54510000       1.66800000       1.08790000
H       -2.07620000      -0.07840000      -0.59710000
H       -2.11690000      -2.47540000      -0.89310000
H       -0.60390000      -1.92110000      -1.61150000
H        0.01220000      -3.52290000       2.09910000
H       -1.29460000      -1.87690000       3.07650000
H       -2.75940000      -0.07330000       2.89530000
