16
Properties=species:S:1:pos:R:3 gdb_7329=T pbc="F F F"
C       -0.29740000       1.36590000      -0.24720000
C        0.36800000       0.06240000       0.19850000
N        1.08380000      -0.59520000      -0.87950000
C        0.74600000      -1.79440000      -1.38390000
O       -0.17330000      -2.51250000      -1.01670000
C        1.68620000      -2.20600000      -2.54000000
N        1.35170000      -3.41020000      -3.03780000
O        2.60130000      -1.49290000      -2.91600000
H        0.44150000       2.07930000      -0.62740000
H       -1.02830000       1.17850000      -1.03890000
H       -0.81340000       1.83510000       0.59600000
H        1.06130000       0.25650000       1.02630000
H       -0.37740000      -0.65410000       0.55190000
H        1.87530000      -0.15430000      -1.33080000
H        0.56400000      -3.88570000      -2.62510000
H        1.87230000      -3.81190000      -3.79820000
