22
Properties=species:S:1:pos:R:3 gdb_104787=T pbc="F F F"
C       -1.65550000      -0.73690000      -0.16150000
C       -0.24940000      -0.14480000      -0.00770000
C        0.74110000      -0.58210000      -1.08790000
C        0.37270000      -0.03200000      -2.46300000
O        0.43190000       1.38670000      -2.40110000
C        2.26070000      -0.39100000      -0.79540000
C        2.39430000      -1.89830000      -0.98520000
C        1.51830000      -2.63430000      -0.05710000
N        0.91420000      -2.08300000      -1.28450000
H       -2.15460000      -0.37480000      -1.06540000
H       -1.61940000      -1.82910000      -0.21700000
H       -2.28370000      -0.46030000       0.69060000
H       -0.29420000       0.94970000      -0.03290000
H        0.14630000      -0.40810000       0.97940000
H        1.08120000      -0.43480000      -3.20180000
H       -0.62870000      -0.38700000      -2.74520000
H        0.19760000       1.73510000      -3.26560000
H        2.76080000       0.21230000      -1.55400000
H        2.53640000      -0.00900000       0.19220000
H        3.15330000      -2.39530000      -1.58130000
H        1.56030000      -3.71930000      -0.07470000
H        1.27340000      -2.21240000       0.91390000
