18
Properties=species:S:1:pos:R:3 gdb_91289=T pbc="F F F"
O        0.38660000       1.19470000      -0.50080000
C        0.09330000      -0.10420000      -0.04690000
C        0.18810000      -0.37000000       1.48660000
C       -1.33800000      -0.61450000       1.53790000
O       -2.05600000       0.52070000       2.03980000
C       -2.59310000       1.27660000       1.03050000
N       -3.12720000       2.40860000       1.19780000
C       -2.44950000       0.55390000      -0.29590000
C       -1.42200000      -0.53340000      -0.01300000
H       -0.02110000       1.83930000       0.08830000
H        0.71340000      -0.76700000      -0.65410000
H        0.78360000      -1.24990000       1.74260000
H        0.53130000       0.47400000       2.09080000
H       -1.69640000      -1.50390000       2.05930000
H       -3.10660000       2.67200000       2.18480000
H       -3.41950000       0.13360000      -0.57880000
H       -2.14380000       1.24750000      -1.08090000
H       -1.61810000      -1.47310000      -0.52950000
