16
Properties=species:S:1:pos:R:3 gdb_124127=T pbc="F F F"
C       -0.13280000       1.46660000       0.02170000
C       -0.01820000       0.01750000       0.00490000
C        0.08430000      -1.18490000      -0.01110000
C        0.19330000      -2.59090000      -0.02770000
C        1.29720000      -3.43300000      -0.06950000
C        0.75590000      -4.73820000      -0.07050000
N        1.44870000      -5.94440000      -0.17340000
N       -0.57650000      -4.72210000      -0.02710000
N       -0.89490000      -3.40920000      -0.01240000
H        0.85640000       1.93700000       0.00870000
H       -0.68630000       1.83400000      -0.84990000
H       -0.65480000       1.81640000       0.91950000
H        2.33150000      -3.13470000      -0.10760000
H        2.30360000      -5.96120000       0.36580000
H        0.86010000      -6.73060000       0.07130000
H       -1.86010000      -3.13120000       0.02050000
