21
Properties=species:S:1:pos:R:3 gdb_103685=T pbc="F F F"
C       -0.15240000       1.55500000      -0.24570000
O       -0.26690000       0.14860000      -0.20380000
C        0.65800000      -0.57360000      -0.99720000
C        0.51200000      -0.26960000      -2.48610000
C        2.12970000      -0.55690000      -0.46460000
C        2.07850000      -2.10700000      -0.25120000
C        0.56150000      -2.07770000      -0.63330000
C        2.94070000      -2.88480000      -1.20440000
O        3.73320000      -3.73490000      -0.88910000
H        0.87070000       1.89440000      -0.02540000
H       -0.45520000       1.97520000      -1.21460000
H       -0.82050000       1.94770000       0.52470000
H        0.79960000       0.75960000      -2.72250000
H        1.15110000      -0.92970000      -3.08010000
H       -0.52520000      -0.42330000      -2.80100000
H        2.89220000      -0.19520000      -1.16070000
H        2.22980000      -0.01860000       0.47940000
H        2.29600000      -2.44410000       0.76280000
H       -0.08820000      -2.23830000       0.22750000
H        0.25440000      -2.74520000      -1.44320000
H        2.79650000      -2.61390000      -2.27920000
