18
Properties=species:S:1:pos:R:3 gdb_32873=T pbc="F F F"
C       -0.20250000       1.38560000       0.35280000
O       -0.27750000      -0.00460000       0.55940000
C       -1.02250000      -0.66210000      -0.43610000
C       -1.05770000      -2.11730000      -0.11080000
C       -0.57100000      -2.84020000       0.93040000
C       -0.93160000      -4.20920000       0.67120000
N       -0.68990000      -5.28760000       1.53470000
C       -1.60910000      -4.20080000      -0.51080000
O       -1.69580000      -2.91650000      -0.99660000
H        0.38890000       1.80420000       1.17020000
H        0.28680000       1.63060000      -0.60320000
H       -1.19960000       1.85360000       0.35770000
H       -2.04990000      -0.25790000      -0.49070000
H       -0.57500000      -0.50580000      -1.43450000
H       -0.03050000      -2.45070000       1.77780000
H        0.20820000      -5.21930000       1.99590000
H       -0.75760000      -6.18530000       1.07290000
H       -2.07800000      -4.96380000      -1.10800000
