17
Properties=species:S:1:pos:R:3 gdb_79545=T pbc="F F F"
C       -0.09090000       1.51380000      -0.07320000
C        0.09010000       0.01220000       0.01990000
C        1.38480000      -0.73250000      -0.20640000
C        2.55830000       0.00000000       0.40030000
O        3.09110000      -0.76920000       1.47990000
C        1.90430000       0.01310000       1.73960000
C        1.94180000       0.97570000       2.78760000
C        1.92980000       1.77940000       3.68200000
C        0.70370000      -0.73000000       1.18310000
H        0.74070000       2.06190000       0.37370000
H       -0.17930000       1.82470000      -1.11990000
H       -1.00580000       1.82100000       0.44430000
H       -0.75530000      -0.53900000      -0.39140000
H        1.46520000      -1.57100000      -0.88710000
H        3.21200000       0.74440000      -0.03870000
H        1.93110000       2.48880000       4.47230000
H        0.21220000      -1.55840000       1.67790000
