16
Properties=species:S:1:pos:R:3 gdb_45979=T pbc="F F F"
N        0.27610000       1.32430000      -0.11410000
C       -0.04900000       0.10880000      -0.02190000
C       -1.47380000      -0.35270000      -0.13400000
C       -1.72180000      -1.49750000      -1.07340000
C       -0.87370000      -2.27920000      -1.75600000
C        0.60530000      -2.28690000      -1.82650000
O        1.16860000      -2.96480000      -2.66350000
C        1.48360000      -1.47480000      -0.87140000
O        0.82770000      -0.91810000       0.25960000
H        1.28340000       1.43480000       0.02730000
H       -1.81420000      -0.66340000       0.86610000
H       -2.09900000       0.50060000      -0.41460000
H       -2.78200000      -1.70130000      -1.21610000
H       -1.29350000      -3.03670000      -2.41290000
H        2.25270000      -2.14730000      -0.48570000
H        1.98770000      -0.69370000      -1.45820000
