13
Properties=species:S:1:pos:R:3 gdb_132829=T pbc="F F F"
F       -0.00430000       0.03710000       0.00400000
C       -0.01090000       1.36710000       0.01060000
C       -1.22140000       2.04550000       0.02960000
N       -1.30180000       3.37610000       0.03720000
C       -0.15470000       4.06250000       0.02570000
C        1.09970000       3.46710000       0.00660000
C        1.19910000       2.06820000      -0.00160000
C        2.44840000       1.39180000      -0.02110000
C        3.51450000       0.83420000      -0.03760000
H       -2.14760000       1.47710000       0.03880000
H       -0.24280000       5.14540000       0.03220000
H        2.00110000       4.06800000      -0.00220000
H        4.45170000       0.33460000      -0.05190000
