21
Properties=species:S:1:pos:R:3 gdb_93859=T pbc="F F F"
C        0.19210000       1.63950000      -0.08230000
C        0.04390000       0.11620000       0.04870000
C        0.68530000      -0.63430000      -1.14490000
C        2.14750000      -0.84150000      -0.71530000
C        2.03570000      -1.21310000       0.77360000
O        3.16620000      -0.87070000       1.56030000
C        0.79110000      -0.45950000       1.26190000
C        0.70290000       0.07770000       2.62340000
O        0.02010000      -1.12890000       2.26930000
H        1.24290000       1.93930000      -0.15590000
H       -0.32200000       1.99820000      -0.98010000
H       -0.23870000       2.16000000       0.77790000
H       -1.01800000      -0.12710000       0.14800000
H        0.19730000      -1.60660000      -1.28050000
H        0.58940000      -0.08950000      -2.08840000
H        2.67120000      -1.59880000      -1.30630000
H        2.71450000       0.09280000      -0.79520000
H        1.81380000      -2.28660000       0.87430000
H        3.87530000      -1.48380000       1.34430000
H        1.55240000      -0.04270000       3.29110000
H        0.05980000       0.93300000       2.82770000
