19
Properties=species:S:1:pos:R:3 gdb_62221=T pbc="F F F"
O       -0.00180000       1.47900000      -0.00680000
C        0.01770000       0.07810000       0.02120000
C        0.66560000      -0.50360000      -1.24890000
C       -0.08650000      -0.09020000      -2.51670000
C        0.59540000      -0.61350000      -3.79650000
C       -0.11970000      -0.24330000      -5.01160000
C       -0.72950000       0.07320000      -5.99790000
C        0.74290000      -0.41340000       1.25670000
O        1.22500000       0.34950000       2.05880000
H        0.46500000       1.76350000       0.79500000
H       -1.01400000      -0.31740000       0.08910000
H        1.70420000      -0.15200000      -1.29790000
H        0.69640000      -1.59880000      -1.16780000
H       -1.11520000      -0.46760000      -2.47840000
H       -0.15180000       1.00050000      -2.55670000
H        1.62270000      -0.22860000      -3.84570000
H        0.68500000      -1.70710000      -3.74570000
H       -1.25920000       0.34970000      -6.87540000
H        0.81110000      -1.51360000       1.38320000
