12
Properties=species:S:1:pos:R:3 gdb_132931=T pbc="F F F"
F        0.02060000       0.01070000       0.00350000
C       -0.02700000       1.34000000       0.01070000
C       -1.18530000       2.01550000       0.02900000
O       -1.23480000       3.36510000       0.03640000
C       -0.07180000       4.15380000       0.02530000
N       -0.15800000       5.41850000       0.03270000
C        1.18500000       3.43200000       0.00550000
C        1.20380000       2.08760000      -0.00140000
F        2.32940000       1.39270000      -0.01940000
H       -2.16040000       1.54750000       0.03930000
H       -1.13180000       5.71970000       0.04680000
H        2.09480000       4.01550000      -0.00340000
