21
Properties=species:S:1:pos:R:3 gdb_110302=T pbc="F F F"
C        0.20680000       1.39690000      -0.05690000
O       -0.21410000       0.06510000       0.18080000
C        0.55640000      -0.58440000       1.16210000
C        0.09760000      -1.98480000       1.54350000
C        0.20870000      -2.97900000       0.42070000
C       -0.15820000      -2.75310000      -1.03700000
C        1.47510000      -2.56670000       1.12390000
C        1.96520000      -1.17030000       0.74330000
O        2.47060000      -0.91550000      -0.54540000
H        1.23950000       1.43480000      -0.42380000
H       -0.46160000       1.81520000      -0.81350000
H        0.13180000       2.00620000       0.85730000
H        0.65720000       0.06390000       2.04510000
H       -0.47230000      -2.20420000       2.43830000
H       -0.09360000      -3.96810000       0.76340000
H       -0.07480000      -1.70480000      -1.32680000
H        0.46070000      -3.37150000      -1.69740000
H       -1.20270000      -3.03580000      -1.20750000
H        2.07690000      -3.29500000       1.65530000
H        2.73910000      -0.82200000       1.43210000
H        1.83750000      -1.25010000      -1.18720000
