21
Properties=species:S:1:pos:R:3 gdb_63742=T pbc="F F F"
C        0.06300000       1.56590000      -0.03180000
C        0.00050000       0.03700000       0.01870000
O       -1.37700000      -0.38340000       0.02700000
C        0.66500000      -0.65180000      -1.20410000
C        1.50190000      -1.80530000      -0.63610000
C        1.44080000      -3.21470000      -1.19220000
C        2.68170000      -2.38620000      -1.38420000
C        1.54050000      -1.57110000       0.82830000
C        0.75200000      -0.56160000       1.19440000
H        1.09800000       1.92000000      -0.06970000
H       -0.47050000       1.93820000      -0.91180000
H       -0.40670000       2.00200000       0.85830000
H       -1.76930000      -0.08380000       0.85450000
H       -0.10850000      -0.98460000      -1.89970000
H        1.30840000       0.06070000      -1.72990000
H        1.47610000      -4.04270000      -0.49180000
H        0.79710000      -3.38350000      -2.04910000
H        2.88640000      -1.99270000      -2.37500000
H        3.56990000      -2.64800000      -0.81800000
H        2.14060000      -2.18200000       1.49570000
H        0.60310000      -0.20900000       2.21030000
