20
Properties=species:S:1:pos:R:3 gdb_70411=T pbc="F F F"
C        0.06470000       1.52690000       0.12270000
C       -0.02050000       0.03150000       0.00110000
C       -0.90970000      -0.80080000       0.83950000
N        0.54770000      -0.91150000       1.04730000
C        1.03310000      -1.80010000      -0.06650000
C        0.55990000      -0.81630000      -1.16670000
C       -0.40570000      -1.28380000      -2.25880000
C        1.71860000      -0.08800000      -1.82980000
O        2.88690000      -0.26790000      -1.60470000
H        1.07490000       1.89320000      -0.08860000
H       -0.62890000       2.02020000      -0.56850000
H       -0.19470000       1.83610000       1.13900000
H       -1.42040000      -0.30160000       1.65810000
H       -1.44960000      -1.65030000       0.42700000
H        2.11890000      -1.89300000      -0.03420000
H        0.56960000      -2.79200000      -0.06990000
H       -1.30520000      -1.73100000      -1.82970000
H       -0.71870000      -0.44780000      -2.89530000
H        0.06680000      -2.03400000      -2.90260000
H        1.39660000       0.66560000      -2.58640000
