19
Properties=species:S:1:pos:R:3 gdb_52311=T pbc="F F F"
O        0.15870000       0.25370000       0.72460000
C        0.30310000       1.43850000       0.68550000
O        0.83600000       2.07370000      -0.37410000
C        0.99990000       3.49610000      -0.30730000
C        2.48720000       3.87090000      -0.30640000
C        2.69260000       5.41250000      -0.22720000
C        3.17640000       5.71190000       1.21830000
C        3.56570000       4.35220000       1.74430000
C        3.20970000       3.36570000       0.92390000
H        0.01510000       2.13200000       1.50010000
H        0.49830000       3.91160000      -1.18710000
H        0.50430000       3.88860000       0.59090000
H        2.91990000       3.45670000      -1.22470000
H        3.45820000       5.71420000      -0.94630000
H        1.78370000       5.96520000      -0.48520000
H        4.01120000       6.42180000       1.23350000
H        2.38870000       6.16190000       1.83810000
H        4.06500000       4.21940000       2.69810000
H        3.37810000       2.30960000       1.10050000
