18
Properties=species:S:1:pos:R:3 gdb_9389=T pbc="F F F"
C       -0.01110000       0.92420000       1.10940000
C       -0.13110000      -0.02640000      -0.06910000
O       -1.37300000      -0.69780000       0.01890000
C       -1.59400000      -1.60590000      -1.02810000
C       -2.94390000      -2.30360000      -0.79420000
O       -3.30080000      -3.07200000      -1.93900000
C       -2.93840000      -3.11130000       0.42620000
C       -2.91170000      -3.82710000       1.39140000
H        0.94370000       1.45730000       1.07290000
H       -0.82070000       1.65930000       1.09350000
H       -0.06710000       0.37340000       2.05250000
H       -0.06550000       0.52560000      -1.02190000
H        0.69430000      -0.75820000      -0.06380000
H       -1.64140000      -1.09800000      -2.00450000
H       -0.79240000      -2.36250000      -1.07970000
H       -3.70820000      -1.52270000      -0.70850000
H       -2.83340000      -3.91230000      -1.88100000
H       -2.90160000      -4.44340000       2.25630000
