20
Properties=species:S:1:pos:R:3 gdb_100411=T pbc="F F F"
C       -0.02180000       1.29290000       0.10240000
O       -0.04780000      -0.12790000      -0.03560000
C        0.59850000      -0.64250000      -1.10320000
C        0.48040000      -2.15030000      -1.10920000
N        1.19030000       0.12150000      -1.92590000
C        1.88090000      -0.41060000      -3.06440000
C        1.58010000       0.27790000      -4.41980000
O        2.97740000       0.54940000      -4.64560000
C        3.31010000       0.13810000      -3.30500000
H        1.00530000       1.65680000       0.19340000
H       -0.48080000       1.77700000      -0.76410000
H       -0.58840000       1.51000000       1.00900000
H       -0.01220000      -2.49920000      -2.02110000
H        1.46780000      -2.61880000      -1.06670000
H       -0.10140000      -2.47810000      -0.24800000
H        1.84640000      -1.50360000      -3.14780000
H        1.14690000      -0.34390000      -5.21180000
H        0.98980000       1.19580000      -4.30390000
H        3.54950000       0.98900000      -2.65460000
H        4.13360000      -0.58520000      -3.28730000
