22
Properties=species:S:1:pos:R:3 gdb_13718=T pbc="F F F"
C       -0.43420000       1.34480000       0.13410000
C        0.34390000       0.03750000      -0.03340000
C        0.70560000      -0.59890000       1.30130000
O        1.42480000      -1.79500000       1.05200000
C        1.80190000      -2.46850000       2.20970000
C        0.80580000      -3.37570000       2.89580000
C        1.97140000      -3.95530000       2.11370000
C        1.73290000      -4.67870000       0.80700000
H        0.14580000       2.08610000       0.69500000
H       -0.68030000       1.78320000      -0.83730000
H       -1.37450000       1.18420000       0.67330000
H       -0.24340000      -0.68300000      -0.61430000
H        1.26720000       0.21330000      -0.59730000
H        1.31940000       0.09330000       1.90270000
H       -0.20200000      -0.81590000       1.88740000
H        2.49680000      -1.91030000       2.84030000
H        0.80360000      -3.44030000       3.97860000
H       -0.17360000      -3.45160000       2.43390000
H        2.78120000      -4.36190000       2.71410000
H        0.96180000      -4.17550000       0.21960000
H        2.64450000      -4.70530000       0.20000000
H        1.41600000      -5.71220000       0.98320000
