17
Properties=species:S:1:pos:R:3 gdb_22610=T pbc="F F F"
C       -0.09320000       1.51130000       0.00250000
C        0.12730000       0.03380000      -0.05590000
N       -0.74740000      -0.94100000       0.68790000
C        0.71130000      -0.94520000       0.92540000
C        1.26560000      -1.83830000      -0.20850000
O        0.79290000      -3.14870000      -0.26850000
C        0.69750000      -0.76900000      -1.17850000
N        0.80510000      -0.47090000      -2.40370000
O        1.52700000      -1.44670000      -3.10960000
H        0.78350000       2.04530000      -0.37580000
H       -0.95090000       1.80280000      -0.61260000
H       -0.28230000       1.84150000       1.02940000
H       -1.18400000      -0.41980000       1.44840000
H        1.12870000      -0.76790000       1.90880000
H        2.35740000      -1.87130000      -0.25470000
H       -0.16240000      -3.08570000      -0.12970000
H        1.53310000      -1.08770000      -4.00350000
