20
Properties=species:S:1:pos:R:3 gdb_107885=T pbc="F F F"
C       -0.83820000       1.42860000      -0.27840000
N       -0.50210000       0.03510000      -0.00960000
C       -1.17910000      -0.67800000       1.10900000
C        0.01290000      -1.67720000       1.21930000
C        0.11590000      -1.54170000       2.74160000
C       -0.26690000      -0.11100000       2.29280000
C       -0.46190000       1.00250000       3.29830000
O       -1.02310000       2.21760000       2.82430000
C        0.59380000      -0.25770000       0.95550000
H       -0.12810000       1.82360000      -1.01350000
H       -1.83340000       1.46990000      -0.73610000
H       -0.82100000       2.08160000       0.60510000
H       -2.24780000      -0.90650000       1.11890000
H        0.16100000      -2.54100000       0.57320000
H       -0.62960000      -2.07850000       3.33740000
H        1.11170000      -1.66450000       3.17970000
H       -1.06260000       0.59960000       4.13010000
H        0.51360000       1.27340000       3.71910000
H       -1.92510000       2.03350000       2.54220000
H        1.63560000       0.02400000       0.78860000
