15
Properties=species:S:1:pos:R:3 gdb_2926=T pbc="F F F"
O       -0.00810000       1.41980000       0.05790000
C       -0.01380000       0.00510000       0.00610000
C       -1.42130000      -0.48780000      -0.01580000
C       -2.54590000       0.21960000       0.00580000
C       -3.72930000      -0.70220000      -0.03050000
O       -3.18090000      -2.01910000      -0.07560000
C       -1.76010000      -1.95590000      -0.06880000
H        0.90690000       1.71420000       0.06890000
H        0.51570000      -0.36750000      -0.88900000
H        0.51090000      -0.43200000       0.87450000
H       -2.61800000       1.29770000       0.04380000
H       -4.37410000      -0.59870000       0.85690000
H       -4.36870000      -0.53590000      -0.91230000
H       -1.35780000      -2.44720000      -0.97060000
H       -1.36350000      -2.50980000       0.79870000
