20
Properties=species:S:1:pos:R:3 gdb_97021=T pbc="F F F"
C       -0.02490000       1.42250000       0.03280000
N       -0.01010000      -0.03140000       0.02650000
C        0.54810000      -0.61250000      -0.95150000
N        1.17820000      -0.06800000      -2.07140000
C        1.63590000      -1.11220000      -2.86670000
N        1.40150000      -2.28810000      -2.43700000
C        0.67390000      -2.13030000      -1.15300000
C        1.49050000      -2.75920000      -0.01620000
C       -0.71370000      -2.77620000      -1.26320000
H        0.99010000       1.85090000       0.04170000
H       -0.55280000       1.83950000      -0.83980000
H       -0.53910000       1.77990000       0.92820000
H        1.28230000       0.91190000      -2.26930000
H        2.15780000      -0.88660000      -3.79190000
H        2.49270000      -2.32370000       0.03070000
H        0.98960000      -2.57830000       0.93850000
H        1.59140000      -3.83560000      -0.17900000
H       -0.61370000      -3.85270000      -1.42580000
H       -1.27630000      -2.59520000      -0.34350000
H       -1.27490000      -2.35320000      -2.10120000
