21
Properties=species:S:1:pos:R:3 gdb_113142=T pbc="F F F"
C        0.08680000       1.49210000       0.06390000
C        0.03290000       0.03690000       0.04260000
C       -0.01530000      -1.16790000       0.03450000
C       -0.01340000      -2.60930000      -0.00720000
C        1.15630000      -3.21420000      -0.77280000
C       -0.53520000      -3.36320000       1.20980000
C       -1.34440000      -3.35400000      -0.05580000
C       -2.65640000      -2.62000000      -0.11680000
O       -3.65610000      -3.46810000       0.43800000
H        1.08520000       1.85460000      -0.20560000
H       -0.62500000       1.93290000      -0.64340000
H       -0.14800000       1.88690000       1.05890000
H        2.10930000      -2.90950000      -0.32900000
H        1.10590000      -4.30720000      -0.75630000
H        1.15130000      -2.88720000      -1.81750000
H       -0.01730000      -4.27370000       1.49170000
H       -0.90040000      -2.77310000       2.04250000
H       -1.32970000      -4.26870000      -0.64240000
H       -2.57690000      -1.67360000       0.43700000
H       -2.89100000      -2.36640000      -1.16330000
H       -4.50340000      -3.02140000       0.35040000
