21
Properties=species:S:1:pos:R:3 gdb_33127=T pbc="F F F"
C       -0.03590000       1.52720000      -0.00320000
C       -0.03860000       0.00440000      -0.08810000
N        0.80970000      -0.45850000      -1.17410000
C        0.86030000      -1.84010000      -1.41040000
C        0.40240000      -2.85750000      -0.59750000
N        0.73100000      -4.05150000      -1.20940000
C        1.37250000      -3.80370000      -2.39100000
C        1.47710000      -2.44070000      -2.55610000
C        2.11550000      -1.70600000      -3.69390000
H        0.98150000       1.90610000       0.13110000
H       -0.44610000       1.97420000      -0.91660000
H       -0.64890000       1.86960000       0.83540000
H        0.35470000      -0.41720000       0.84620000
H       -1.07540000      -0.36730000      -0.18280000
H        0.64620000       0.06360000      -2.02640000
H       -0.11040000      -2.83810000       0.34870000
H        0.53000000      -4.96150000      -0.83820000
H        1.71110000      -4.60850000      -3.02460000
H        1.39170000      -1.10660000      -4.26380000
H        2.89190000      -1.01460000      -3.34350000
H        2.58170000      -2.40030000      -4.39910000
