17
Properties=species:S:1:pos:R:3 gdb_53973=T pbc="F F F"
C        0.01960000       1.59660000      -0.05010000
C        0.02230000       0.06610000      -0.00260000
O        0.76630000      -0.29660000       1.15690000
C       -1.41340000      -0.51240000       0.03730000
C       -2.19320000      -0.03500000       1.17440000
N       -2.81020000       0.33900000       2.07690000
C        0.68670000      -0.45860000      -1.30220000
N        1.98100000      -0.83020000      -1.14840000
O        0.07640000      -0.50310000      -2.35430000
H        1.04750000       1.96750000      -0.03440000
H       -0.46550000       1.94380000      -0.96490000
H       -0.50790000       1.99760000       0.81860000
H        0.61890000      -1.23090000       1.34300000
H       -1.91330000      -0.26030000      -0.90130000
H       -1.36970000      -1.60840000       0.07410000
H        2.43500000      -0.69920000      -0.26020000
H        2.51270000      -1.08950000      -1.96280000
