18
Properties=species:S:1:pos:R:3 gdb_53705=T pbc="F F F"
C        0.05210000       1.45280000       0.00870000
C        0.02300000      -0.00300000       0.00140000
C        0.01560000      -1.20690000      -0.00460000
C       -0.03080000      -2.66380000      -0.01130000
C       -1.46860000      -3.18870000      -0.00090000
O       -1.40470000      -4.60550000      -0.00820000
C       -2.67580000      -5.20170000       0.00050000
C       -2.52580000      -6.66020000      -0.00790000
N       -2.44180000      -7.81150000      -0.01370000
H        1.08160000       1.82740000       0.00170000
H       -0.45640000       1.86670000      -0.86900000
H       -0.44090000       1.85750000       0.89950000
H        0.47830000      -3.06410000      -0.89620000
H        0.49410000      -3.07270000       0.86040000
H       -1.99940000      -2.82980000       0.89430000
H       -2.01540000      -2.82130000      -0.88300000
H       -3.25470000      -4.91400000       0.89380000
H       -3.27070000      -4.90570000      -0.87950000
