16
Properties=species:S:1:pos:R:3 gdb_129577=T pbc="F F F"
N        0.19430000       1.36360000       0.06070000
C        0.15310000       0.08220000       0.08320000
N        1.24310000      -0.79380000       0.10460000
N       -1.04870000      -0.59430000       0.14050000
H       -1.01150000      -1.55740000       0.42980000
C       -2.31620000      -0.01660000       0.15930000
C       -3.55820000      -0.62570000       0.22570000
C       -4.46270000       0.45700000       0.19560000
N       -3.84690000       1.63140000       0.11570000
N       -2.53150000       1.31570000       0.09630000
H        1.14300000       1.70660000      -0.05790000
H       -1.78960000       2.00210000       0.06140000
H        2.12580000      -0.33950000      -0.07810000
H        1.13420000      -1.62490000      -0.46200000
H       -3.76930000      -1.68140000       0.27880000
H       -5.54200000       0.41970000       0.22690000
