18
Properties=species:S:1:pos:R:3 gdb_53496=T pbc="F F F"
C        0.08580000       1.52260000      -0.06760000
C        0.04420000       0.06770000      -0.01590000
C        0.03560000      -1.13580000       0.04500000
C       -0.01830000      -2.59200000       0.09030000
C       -1.46690000      -3.13550000       0.02360000
N       -2.12350000      -2.71000000      -1.21940000
H       -1.86450000      -4.51930000      -1.70790000
H       -3.12450000      -2.61470000      -1.08320000
H       -1.77460000      -1.79850000      -1.50260000
C       -1.39340000      -4.67460000       0.07500000
O       -1.09500000      -5.27810000       1.07090000
O       -1.65120000      -5.26270000      -1.09910000
H        0.76940000       1.92370000       0.68840000
H        0.42700000       1.87830000      -1.04590000
H       -0.90290000       1.95640000       0.11790000
H        0.55490000      -3.01230000      -0.74690000
H        0.43630000      -2.97770000       1.00810000
H       -1.99360000      -2.80660000       0.92660000
