17
Properties=species:S:1:pos:R:3 gdb_23483=T pbc="F F F"
O       -0.13970000       1.32670000      -0.04100000
N        0.01370000      -0.07450000      -0.03250000
C       -1.11270000      -0.65480000      -0.02400000
C       -2.56000000      -0.22200000       0.09960000
C       -3.35880000      -0.53920000      -1.19370000
N       -3.41310000      -2.00770000      -0.88490000
C       -2.10100000      -2.65790000      -1.21380000
C       -1.42670000      -2.12950000       0.08200000
C       -2.87820000      -1.70330000       0.50900000
H        0.77420000       1.62850000      -0.00320000
H       -2.78300000       0.67960000       0.66770000
H       -4.37000000      -0.12280000      -1.15480000
H       -2.90480000      -0.28020000      -2.15530000
H       -2.21970000      -3.74550000      -1.18970000
H       -1.66380000      -2.36880000      -2.17470000
H       -0.74400000      -2.77390000       0.63460000
H       -3.41820000      -2.03220000       1.39460000
