14
Properties=species:S:1:pos:R:3 gdb_127223=T pbc="F F F"
C       -0.00240000       1.38650000       0.12810000
N        0.02440000      -0.05410000      -0.00070000
C       -0.11300000      -0.79030000      -1.11350000
C       -0.01710000      -2.12740000      -0.73990000
C       -0.10070000      -3.26830000      -1.56610000
N       -0.16990000      -4.20220000      -2.24810000
C        0.18350000      -2.06390000       0.66580000
O        0.33230000      -3.12390000       1.46970000
N        0.20860000      -0.81990000       1.11110000
H        0.94450000       1.74450000       0.54060000
H       -0.15790000       1.82430000      -0.85890000
H       -0.81540000       1.68910000       0.79320000
H       -0.26660000      -0.34600000      -2.08390000
H        0.45160000      -2.79500000       2.37010000
