18
Properties=species:S:1:pos:R:3 gdb_52899=T pbc="F F F"
C        0.05840000       1.61540000       0.37220000
C        0.03270000       0.17140000       0.19470000
C        0.00510000      -1.02630000       0.06670000
C        0.01900000      -2.44690000      -0.14350000
N       -0.44870000      -3.34190000       0.94570000
C       -1.26570000      -3.26480000      -0.24810000
C       -2.61820000      -2.61300000      -0.13500000
C        1.14650000      -2.98450000      -0.97390000
O        1.46460000      -4.15010000      -0.97090000
H        1.07710000       2.00750000       0.28040000
H       -0.56300000       2.12250000      -0.37410000
H       -0.31590000       1.89470000       1.36310000
H        0.14060000      -4.17530000       0.89720000
H       -1.19400000      -4.09780000      -0.94610000
H       -2.58080000      -1.76160000       0.54700000
H       -2.96630000      -2.26750000      -1.11350000
H       -3.34670000      -3.33420000       0.25050000
H        1.67280000      -2.23250000      -1.59480000
