20
Properties=species:S:1:pos:R:3 gdb_73991=T pbc="F F F"
C       -0.17800000       1.26940000      -0.31420000
C       -0.06290000      -0.05890000       0.36340000
C       -1.10180000      -0.92110000       0.52210000
C       -1.66410000      -1.42280000      -0.81740000
N       -0.67130000      -2.58190000      -0.68450000
C       -0.60800000      -2.34450000       0.78720000
C        0.67160000      -2.27770000       0.07440000
C        1.62490000      -3.43510000      -0.06360000
C        1.22900000      -0.85920000       0.31360000
H        0.37550000       1.29790000      -1.26320000
H       -1.22380000       1.52650000      -0.50670000
H        0.24350000       2.06820000       0.31050000
H       -2.65840000      -1.88100000      -0.81390000
H       -1.55090000      -0.77390000      -1.69160000
H       -0.96050000      -3.06740000       1.51640000
H        1.08890000      -4.38510000      -0.10500000
H        2.22350000      -3.34310000      -0.97650000
H        2.31550000      -3.45840000       0.78760000
H        1.85640000      -0.46940000      -0.49810000
H        1.86560000      -0.88450000       1.21100000
