22
Properties=species:S:1:pos:R:3 gdb_95687=T pbc="F F F"
C       -0.04040000       1.59400000       0.01750000
C       -0.00760000       0.05990000      -0.00240000
C        0.58220000      -0.44350000      -1.33010000
C        0.56690000      -1.96810000      -1.51340000
N        1.58100000      -2.68250000      -0.75370000
C        1.70970000      -2.76690000       0.60530000
O        2.61140000      -3.40790000       1.11610000
C        0.68040000      -2.00700000       1.43320000
C        0.71500000      -0.47640000       1.24570000
H        0.97380000       2.00860000      -0.02320000
H       -0.59560000       1.99180000      -0.83840000
H       -0.51510000       1.96980000       0.92980000
H       -1.04760000      -0.29940000       0.04630000
H        0.00520000      -0.00060000      -2.15190000
H        1.61450000      -0.08650000      -1.44170000
H       -0.43510000      -2.35700000      -1.28110000
H        0.74810000      -2.20410000      -2.56550000
H        2.29150000      -3.18940000      -1.25930000
H       -0.32790000      -2.38310000       1.21280000
H        0.90360000      -2.26210000       2.47040000
H        1.75870000      -0.13460000       1.24540000
H        0.24770000      -0.01960000       2.12580000
