18
Properties=species:S:1:pos:R:3 gdb_81991=T pbc="F F F"
C       -0.14100000       1.56550000      -0.01730000
C        0.03460000       0.05520000      -0.06810000
C        0.73170000      -0.59440000      -1.27080000
C        2.17590000      -0.19660000      -1.34620000
C        1.77040000      -1.25460000      -0.35910000
C        1.14680000      -0.59650000       0.87310000
O        2.03780000       0.27000000       1.54120000
C        0.56630000      -1.56370000       1.81450000
N        0.09650000      -2.29600000       2.57610000
H        0.80720000       2.09250000      -0.14650000
H       -0.82310000       1.89250000      -0.80890000
H       -0.57270000       1.88000000       0.93960000
H       -0.92090000      -0.43910000       0.12600000
H        0.21280000      -1.03730000      -2.11120000
H        2.71470000      -0.57780000      -2.20720000
H        2.51840000       0.77140000      -0.99770000
H        2.16990000      -2.25970000      -0.37270000
H        1.58430000       0.65800000       2.29850000
