20
Properties=species:S:1:pos:R:3 gdb_33132=T pbc="F F F"
C       -0.01100000       1.52620000      -0.09630000
C       -0.00360000       0.00900000      -0.04000000
O        0.66950000      -0.47530000      -1.18980000
C        0.76330000      -1.82810000      -1.29500000
C        0.30040000      -2.80930000      -0.44320000
N        0.65360000      -4.01860000      -1.00820000
C        1.32130000      -3.80630000      -2.18390000
C        1.41310000      -2.45010000      -2.40350000
C        2.05480000      -1.74300000      -3.55610000
H        1.01090000       1.91540000      -0.11320000
H       -0.52590000       1.87510000      -0.99580000
H       -0.52440000       1.93530000       0.77900000
H        0.50810000      -0.34860000       0.86710000
H       -1.03000000      -0.38900000      -0.01640000
H       -0.23450000      -2.75960000       0.48890000
H        0.44980000      -4.91700000      -0.61110000
H        1.68200000      -4.63100000      -2.77840000
H        1.33640000      -1.11720000      -4.09830000
H        2.86180000      -1.07880000      -3.22540000
H        2.47950000      -2.45780000      -4.26690000
