20
Properties=species:S:1:pos:R:3 gdb_16159=T pbc="F F F"
C        0.10590000       1.49910000       0.32330000
C        0.00380000       0.04830000      -0.16580000
C       -1.40750000      -0.50120000      -0.13440000
C       -1.99820000      -1.02280000       1.16510000
C       -1.74490000      -1.97890000       0.02580000
C       -2.90370000      -2.30910000      -0.91380000
C       -3.26830000      -0.96170000      -1.50310000
C       -2.44070000       0.00290000      -1.09570000
H        1.14180000       1.85150000       0.29860000
H       -0.48760000       2.17560000      -0.30060000
H       -0.25930000       1.59200000       1.35130000
H        0.40120000      -0.02380000      -1.18680000
H        0.64460000      -0.58790000       0.45730000
H       -1.33220000      -1.09890000       2.02000000
H       -3.02060000      -0.75420000       1.41210000
H       -0.95180000      -2.70770000       0.15210000
H       -2.60090000      -3.01880000      -1.69610000
H       -3.74930000      -2.77420000      -0.38990000
H       -4.12080000      -0.82210000      -2.15860000
H       -2.50240000       1.04490000      -1.39050000
