13
Properties=species:S:1:pos:R:3 gdb_129493=T pbc="F F F"
N       -0.03520000       1.32970000      -0.28200000
C        0.11560000       0.01100000       0.08700000
O        1.14560000      -0.48940000       0.44900000
N       -1.11820000      -0.70090000       0.05590000
C       -2.39480000      -0.18550000       0.21700000
N       -3.30710000      -1.09810000       0.20480000
N       -2.61370000      -2.26710000       0.01690000
C       -1.24370000      -2.12040000      -0.07070000
O       -0.39390000      -2.95330000      -0.24220000
H        0.83990000       1.82650000      -0.35580000
H       -0.72440000       1.56530000      -0.97920000
H       -2.58760000       0.86220000       0.38120000
H       -3.10090000      -3.14540000      -0.02060000
