19
Properties=species:S:1:pos:R:3 gdb_75927=T pbc="F F F"
O        0.42820000       0.81060000      -0.84880000
C        0.06890000      -0.31970000      -0.10920000
C        0.43910000      -0.19050000       1.36810000
O        1.26990000       0.58800000       1.76830000
C       -0.49130000      -1.07840000       2.18860000
C       -1.52180000      -1.60940000       1.16070000
C       -1.41860000      -0.63740000      -0.01480000
C       -2.42240000       0.46850000      -0.21790000
C       -2.31800000      -0.67060000      -1.20970000
H        1.03180000       1.31240000      -0.27920000
H        0.59080000      -1.21730000      -0.49710000
H        0.06980000      -1.86180000       2.70660000
H       -0.95160000      -0.45540000       2.96230000
H       -1.25000000      -2.62160000       0.83770000
H       -2.53410000      -1.66210000       1.56800000
H       -3.28880000       0.50300000       0.43450000
H       -2.03660000       1.43280000      -0.52690000
H       -1.88100000      -0.45250000      -2.17850000
H       -3.11470000      -1.40770000      -1.22970000
