19
Properties=species:S:1:pos:R:3 gdb_37891=T pbc="F F F"
C       -0.06710000       1.54710000       0.01660000
C        1.47860000       1.27680000       0.00560000
C        1.22650000       0.04400000       0.91160000
O        2.11030000      -1.02370000       0.61510000
C        1.86430000      -1.16340000      -0.80030000
C        0.64910000      -2.11870000      -0.97600000
C       -0.59900000      -1.31770000      -0.42120000
C        0.06540000       0.01210000      -0.12520000
C        1.25890000       0.21180000      -1.11050000
H       -0.49120000       1.93580000       0.94750000
H       -0.46630000       2.08390000      -0.84760000
H        2.27820000       2.01420000       0.08180000
H        1.05250000       0.13750000       1.98360000
H        2.77720000      -1.48660000      -1.30310000
H        0.51090000      -2.36350000      -2.03490000
H        0.82160000      -3.05300000      -0.43670000
H       -1.38910000      -1.23940000      -1.17380000
H       -1.02950000      -1.79310000       0.46470000
H        1.05960000       0.50180000      -2.14260000
