19
Properties=species:S:1:pos:R:3 gdb_100819=T pbc="F F F"
O        0.06750000       1.38980000      -0.30080000
C        0.07030000      -0.00420000       0.01260000
C       -1.36370000      -0.54060000       0.00860000
O       -2.01380000      -0.15080000      -1.18620000
C       -1.41250000      -2.06390000       0.09870000
O       -0.78800000      -2.41780000       1.31930000
C       -2.86510000      -2.58610000       0.03150000
C       -2.90420000      -4.03100000       0.21770000
C       -2.85910000      -5.21950000       0.40140000
H       -0.23930000       1.86740000       0.47740000
H        0.64320000      -0.48420000      -0.78760000
H        0.56240000      -0.21300000       0.96800000
H       -1.89210000      -0.13280000       0.89090000
H       -1.66640000       0.72830000      -1.39010000
H       -0.86200000      -2.47880000      -0.76090000
H       -0.91300000      -3.36720000       1.43890000
H       -3.45520000      -2.09540000       0.81580000
H       -3.30110000      -2.30090000      -0.93070000
H       -2.85950000      -6.27170000       0.54500000
