15
Properties=species:S:1:pos:R:3 gdb_17049=T pbc="F F F"
C        0.18010000       1.28370000       0.17820000
O       -0.31600000       0.03400000      -0.25760000
C        0.44010000      -0.53420000      -1.26800000
C        1.76570000      -1.30030000      -0.90040000
N        0.86160000      -2.34500000      -0.24520000
C        0.12690000      -2.02430000      -1.54980000
C        1.53160000      -2.11160000      -2.19090000
O        2.12770000      -2.69320000      -3.04430000
H        1.16890000       1.18790000       0.64870000
H        0.25650000       2.00120000      -0.65330000
H       -0.52720000       1.66860000       0.91540000
H        0.51480000       0.12140000      -2.14660000
H        2.67760000      -0.94250000      -0.42780000
H        1.29040000      -3.27400000      -0.28930000
H       -0.82480000      -2.48210000      -1.80910000
