15
Properties=species:S:1:pos:R:3 gdb_26808=T pbc="F F F"
N       -0.25460000       1.43790000      -0.00680000
C       -0.01290000       0.03140000      -0.01610000
C       -1.07080000      -0.85450000      -0.09400000
O       -2.38780000      -0.59680000      -0.16810000
N       -0.59680000      -2.12250000      -0.08700000
C        0.79970000      -2.08840000      -0.00360000
C        1.17030000      -0.75480000       0.04130000
C        1.56160000      -3.26690000       0.02180000
C        2.19970000      -4.29130000       0.04240000
H        0.19480000       1.90420000      -0.78910000
H        0.09820000       1.87680000       0.83840000
H       -2.44760000       0.37170000      -0.15530000
H       -1.15450000      -2.95750000      -0.13430000
H        2.18710000      -0.39930000       0.10790000
H        2.77170000      -5.18490000       0.06140000
