18
Properties=species:S:1:pos:R:3 gdb_73172=T pbc="F F F"
C       -0.21900000       1.33440000      -0.15200000
C        0.02580000      -0.13410000       0.07920000
N       -1.14400000      -0.97960000       0.41820000
C       -0.47860000      -1.48880000       1.65300000
C        0.83390000      -0.80720000       1.22120000
O        1.60550000      -1.57810000       0.28160000
C        1.01600000      -0.89200000      -0.86300000
C        0.48930000      -1.76670000      -1.88980000
C        0.06760000      -2.46810000      -2.76990000
H        0.71700000       1.87360000      -0.32780000
H       -0.86020000       1.47910000      -1.02980000
H       -0.71840000       1.79140000       0.70920000
H       -1.98790000      -0.44690000       0.59130000
H       -0.88110000      -1.07700000       2.58750000
H       -0.44200000      -2.58000000       1.72360000
H        1.45480000      -0.30710000       1.96800000
H        1.76020000      -0.21050000      -1.30000000
H       -0.31650000      -3.09590000      -3.53540000
