18
Properties=species:S:1:pos:R:3 gdb_86735=T pbc="F F F"
C       -0.14640000       1.53140000      -0.06150000
C        0.11020000       0.02960000       0.02210000
C        0.88080000      -0.54720000      -1.20270000
N        1.91950000      -1.35230000      -0.54640000
C        1.87530000      -1.05490000       0.81410000
N        0.92840000      -0.30620000       1.21180000
C        2.90720000      -2.00220000      -1.27110000
N        3.81370000      -2.72410000      -0.50890000
O        2.97700000      -1.90930000      -2.48010000
H        0.79710000       2.07820000      -0.15770000
H       -0.77230000       1.77060000      -0.92750000
H       -0.65330000       1.88140000       0.84140000
H       -0.85250000      -0.48500000       0.13770000
H        0.26700000      -1.16850000      -1.85750000
H        1.34360000       0.23400000      -1.81550000
H        2.64420000      -1.45090000       1.46880000
H        3.47590000      -3.18500000       0.32230000
H        4.41030000      -3.30140000      -1.08280000
