16
Properties=species:S:1:pos:R:3 gdb_48707=T pbc="F F F"
O       -0.54380000       0.78970000       0.70280000
C        0.22560000       0.99030000      -0.20560000
C        1.37950000       1.90410000      -0.11410000
C        1.80340000       2.73200000       1.10860000
C        2.08180000       3.89970000       0.14130000
C        1.92350000       5.33560000       0.35360000
O        3.22000000       4.74240000       0.17280000
C        1.69030000       3.06980000      -1.06500000
N        2.42910000       1.82650000      -1.12480000
H        0.11600000       0.50730000      -1.20000000
H        0.97860000       2.92640000       1.79650000
H        2.66100000       2.34220000       1.66410000
H        1.58720000       5.97360000      -0.46280000
H        1.71540000       5.71050000       1.35450000
H        1.15660000       3.39770000      -1.94990000
H        3.36050000       1.89280000      -0.71790000
