18
Properties=species:S:1:pos:R:3 gdb_107315=T pbc="F F F"
C        0.05920000       1.46730000       0.39720000
C        0.00960000       0.04890000      -0.18900000
C       -1.37900000      -0.54090000      -0.18660000
N       -2.02060000      -0.98680000       1.08910000
C       -1.71710000      -1.96850000       0.00590000
C       -2.93040000      -2.25160000      -0.82330000
C       -3.35800000      -1.14330000      -1.44310000
C       -2.44280000      -0.00500000      -1.15000000
O       -2.49120000       1.11250000      -1.60960000
H        1.08020000       1.85930000       0.37320000
H       -0.58670000       2.13600000      -0.17510000
H       -0.28080000       1.47560000       1.43810000
H        0.38240000       0.06520000      -1.22010000
H        0.67790000      -0.61750000       0.37250000
H       -1.28110000      -1.04090000       1.79300000
H       -0.96160000      -2.72670000       0.17890000
H       -3.40770000      -3.22410000      -0.85700000
H       -4.23760000      -1.03400000      -2.06360000
