16
Properties=species:S:1:pos:R:3 gdb_25948=T pbc="F F F"
C       -0.17510000       1.37690000      -0.66830000
C        0.02400000      -0.10920000      -0.50210000
N        1.00760000      -0.69520000      -1.05350000
N       -0.95890000      -0.69170000       0.31760000
C       -1.15060000      -2.03810000       0.54690000
C       -2.25400000      -2.82340000       0.66400000
N       -1.85740000      -4.11040000       1.01000000
C       -0.57210000      -4.04930000       1.06520000
O       -0.05430000      -2.81420000       0.80780000
H        0.62430000       1.77120000      -1.29320000
H       -1.14010000       1.59600000      -1.14060000
H       -0.15780000       1.88480000       0.30250000
H        1.03070000      -1.69190000      -0.84270000
H       -1.74670000      -0.11020000       0.55460000
H       -3.28980000      -2.55940000       0.52650000
H        0.13920000      -4.83380000       1.26640000
