23
Properties=species:S:1:pos:R:3 gdb_53432=T pbc="F F F"
C        0.06070000       1.54240000       0.10720000
C        0.03650000       0.08640000       0.06590000
C        0.02490000      -1.11830000       0.02410000
C        0.01830000      -2.57990000      -0.00710000
C        0.62410000      -3.18820000       1.28320000
C       -0.52830000      -3.15290000       2.31830000
C       -1.83950000      -3.05970000       1.48800000
C       -1.41680000      -3.18340000       0.00780000
C       -2.40350000      -2.58730000      -0.99090000
H        1.08640000       1.92560000       0.06190000
H       -0.49040000       1.97590000      -0.73490000
H       -0.39260000       1.92410000       1.02900000
H        0.56720000      -2.91620000      -0.89510000
H        0.91490000      -4.22320000       1.07200000
H        1.51790000      -2.65690000       1.61700000
H       -0.50740000      -4.03690000       2.96170000
H       -0.42880000      -2.28410000       2.97420000
H       -2.56980000      -3.82650000       1.76210000
H       -2.32230000      -2.08980000       1.64800000
H       -1.28810000      -4.25000000      -0.22340000
H       -2.52620000      -1.51310000      -0.82180000
H       -2.06330000      -2.72750000      -2.02270000
H       -3.38640000      -3.06150000      -0.89790000
