21
Properties=species:S:1:pos:R:3 gdb_36805=T pbc="F F F"
N       -0.02730000      -1.13370000      -0.01070000
C       -0.00580000       0.01860000       0.06340000
C        0.02750000       1.47860000       0.18780000
N        1.34680000       2.00560000      -0.13570000
C        1.42810000       3.45520000       0.03330000
C        2.83960000       3.96180000      -0.26940000
C        2.95690000       5.46640000      -0.15700000
C        3.20550000       6.11990000       1.18130000
C        4.28730000       6.11290000       0.12930000
H       -0.70300000       1.90070000      -0.51420000
H       -0.33010000       1.74090000       1.20130000
H        2.04150000       1.55160000       0.44960000
H        0.71660000       3.91310000      -0.66730000
H        1.12510000       3.78480000       1.04460000
H        3.54880000       3.49220000       0.42680000
H        3.12410000       3.62810000      -1.27440000
H        2.30480000       6.01450000      -0.83340000
H        2.70710000       7.05680000       1.40400000
H        3.33640000       5.47320000       2.04330000
H        5.14220000       5.46300000       0.28630000
H        4.52660000       7.04470000      -0.37080000
