18
Properties=species:S:1:pos:R:3 gdb_46330=T pbc="F F F"
O       -0.27360000       0.04710000       0.12250000
C       -0.15590000       1.24170000       0.05010000
N       -1.05250000       2.27620000      -0.04250000
C       -0.05170000       3.34880000      -0.00960000
C        1.03800000       2.22920000       0.02600000
C        2.02420000       2.18790000       1.21330000
C        3.41400000       2.36360000       0.54670000
O        3.16420000       2.78910000      -0.78610000
C        1.97630000       2.12980000      -1.18560000
H       -2.06090000       2.29050000      -0.01100000
H       -0.04560000       3.98570000      -0.90000000
H       -0.09730000       3.97310000       0.88880000
H        1.81190000       2.98280000       1.93210000
H        1.95250000       1.23250000       1.73950000
H        4.03930000       3.11960000       1.02790000
H        3.96220000       1.40920000       0.54670000
H        2.16700000       1.06800000      -1.41350000
H        1.59550000       2.61950000      -2.08510000
