15
Properties=species:S:1:pos:R:3 gdb_50274=T pbc="F F F"
O       -0.81610000       1.04240000      -0.52240000
C        0.13820000       0.90410000       0.20020000
C        1.36070000       1.78850000       0.15980000
C        1.40000000       2.98810000      -0.81170000
N        1.56950000       3.98540000       0.31240000
C        0.37410000       3.86040000       1.14760000
C        1.43540000       2.82950000       1.30260000
C        2.24180000       2.68940000       2.47530000
N        2.88400000       2.53200000       3.42480000
H        0.16050000       0.11560000       0.98480000
H        2.26420000       1.17420000       0.13060000
H        2.27740000       3.00470000      -1.45730000
H        0.49440000       3.14440000      -1.40170000
H        0.31520000       4.61540000       1.92430000
H       -0.57300000       3.57700000       0.69390000
