18
Properties=species:S:1:pos:R:3 gdb_127672=T pbc="F F F"
C       -0.11730000       1.43450000      -0.06510000
N       -0.03090000      -0.01030000       0.02440000
N       -0.05470000      -0.76730000      -1.10420000
C        0.01800000      -1.99510000      -0.61930000
N        0.08240000      -2.08030000       0.73460000
C        0.04560000      -0.81000000       1.11510000
C        0.13290000      -0.32240000       2.52330000
C        1.59010000      -0.23810000       3.02180000
O        1.67440000       0.24670000       4.34780000
H        0.71650000       1.90820000       0.45970000
H       -0.07280000       1.69480000      -1.12160000
H       -1.05880000       1.79980000       0.35650000
H        0.02290000      -2.85880000      -1.26760000
H       -0.33510000       0.66080000       2.63330000
H       -0.41980000      -1.02390000       3.15690000
H        2.06720000      -1.22140000       2.90750000
H        2.15440000       0.47080000       2.40620000
H        1.31710000      -0.42790000       4.93420000
