15
Properties=species:S:1:pos:R:3 gdb_131734=T pbc="F F F"
O        0.04960000       1.34970000       0.37410000
C        0.00410000      -0.00290000      -0.05370000
C       -1.42080000      -0.45850000       0.01470000
N       -1.71940000      -1.75580000       0.16190000
N       -3.05120000      -1.80490000       0.15040000
C       -3.63050000      -0.58170000       0.01280000
C       -5.07890000      -0.43330000      -0.00610000
O       -5.84570000      -1.36940000       0.09040000
C       -2.58420000       0.32600000      -0.08140000
H        0.93590000       1.68390000       0.20980000
H        0.37470000      -0.10170000      -1.08690000
H        0.62120000      -0.66060000       0.57540000
H       -3.54030000      -2.67990000       0.25510000
H       -5.43890000       0.60970000      -0.11660000
H       -2.64750000       1.39570000      -0.19050000
