18
Properties=species:S:1:pos:R:3 gdb_35110=T pbc="F F F"
C       -0.50660000      -1.01380000      -1.08660000
C       -0.26110000       0.01290000      -0.51220000
C        0.03410000       1.27190000       0.17700000
C       -0.52510000       1.28730000       1.58660000
C        0.10260000       1.80720000       2.63710000
C        1.46600000       2.43970000       2.59900000
C        2.21720000       2.17040000       1.31170000
N        2.40110000       0.75210000       0.96100000
C        1.52730000       1.58900000       0.13170000
H       -0.71960000      -1.92550000      -1.58720000
H       -0.47120000       2.07360000      -0.38660000
H       -1.51210000       0.84970000       1.70010000
H       -0.39200000       1.79110000       3.60520000
H        1.36790000       3.52690000       2.73460000
H        2.06290000       2.08700000       3.45090000
H        3.04620000       2.84670000       1.11180000
H        3.29320000       0.60900000       0.49670000
H        1.88740000       1.86960000      -0.85550000
