21
Properties=species:S:1:pos:R:3 gdb_114527=T pbc="F F F"
O       -0.35330000       1.59810000       0.45430000
C       -0.06620000       0.20470000       0.55540000
C       -1.31880000      -0.52190000       0.09890000
C       -1.67170000      -0.47650000      -1.42090000
C       -1.66510000      -2.02210000      -1.47060000
C       -0.26210000      -2.64260000      -1.73350000
C       -0.11590000      -2.90910000      -0.20480000
O        1.05470000      -2.50060000       0.47020000
C       -1.38460000      -2.08350000       0.08180000
H        0.45070000       2.08160000       0.66410000
H        0.79460000      -0.07040000      -0.06660000
H        0.17950000      -0.08190000       1.58920000
H       -2.14540000      -0.12930000       0.69880000
H       -2.64700000      -0.02750000      -1.62300000
H       -0.93370000       0.01400000      -2.06330000
H       -2.51120000      -2.52760000      -1.93600000
H       -0.23720000      -3.53410000      -2.36550000
H        0.46460000      -1.92080000      -2.11880000
H       -0.33010000      -3.96690000       0.00970000
H        1.77260000      -3.08840000       0.21400000
H       -2.07500000      -2.51600000       0.80760000
