17
Properties=species:S:1:pos:R:3 gdb_8847=T pbc="F F F"
C       -0.00620000       1.46350000      -0.00440000
N       -0.05350000       0.01500000      -0.03990000
C       -1.23690000      -0.66200000       0.04320000
O       -2.31810000      -0.10850000       0.15090000
N       -1.11530000      -2.06330000      -0.00520000
C        0.16450000      -2.74720000      -0.13340000
C       -2.28100000      -2.81570000       0.07410000
N       -2.26270000      -4.08800000       0.03800000
H        0.58060000       1.82180000       0.84880000
H        0.42870000       1.87030000      -0.92430000
H       -1.03090000       1.82170000       0.09310000
H        0.80950000      -0.49010000      -0.12740000
H        0.82250000      -2.52490000       0.71460000
H       -0.04380000      -3.81660000      -0.14440000
H        0.66980000      -2.47680000      -1.06770000
H       -3.15660000      -2.17430000       0.16650000
H       -3.21080000      -4.44970000       0.10930000
