21
Properties=species:S:1:pos:R:3 gdb_124530=T pbc="F F F"
C        0.02370000       1.54240000       0.19310000
C       -0.08040000       0.01830000       0.00690000
C        0.81620000      -0.72380000       1.01370000
C       -1.50810000      -0.45070000       0.09030000
N       -2.08920000      -1.03310000      -0.95980000
N       -3.34350000      -1.32620000      -0.55780000
C       -4.25510000      -1.97640000      -1.47180000
C       -3.57160000      -0.94380000       0.72190000
C       -2.40620000      -0.37020000       1.18230000
H        1.06120000       1.87630000       0.08480000
H       -0.58530000       2.07270000      -0.54480000
H       -0.32070000       1.84240000       1.18920000
H        0.26160000      -0.22830000      -1.00460000
H        0.50520000      -0.51920000       2.04430000
H        0.77100000      -1.80590000       0.85960000
H        1.85940000      -0.40640000       0.91130000
H       -3.85700000      -2.94670000      -1.78190000
H       -5.21320000      -2.12480000      -0.97070000
H       -4.40630000      -1.35950000      -2.36210000
H       -4.52780000      -1.10720000       1.19470000
H       -2.23180000       0.04480000       2.16190000
