19
Properties=species:S:1:pos:R:3 gdb_97743=T pbc="F F F"
C       -0.34230000       1.60800000      -0.03940000
C        0.14890000       0.15880000       0.13170000
C        0.83380000      -0.35720000      -1.04910000
C        1.39540000      -0.76200000      -2.03650000
C        2.06400000      -1.24480000      -3.22460000
C        3.51800000      -1.82560000      -3.17670000
C        3.00460000      -3.07960000      -2.43270000
C        2.06000000      -2.76180000      -3.61450000
O        3.24400000      -2.50430000      -4.46090000
H        0.49530000       2.28070000      -0.24230000
H       -1.04520000       1.68410000      -0.87340000
H       -0.84680000       1.94890000       0.86950000
H        0.82190000       0.09990000       0.99700000
H       -0.70320000      -0.49100000       0.37030000
H        1.91240000      -0.60170000      -4.09450000
H        4.46020000      -1.28630000      -3.07810000
H        3.61710000      -3.97170000      -2.56400000
H        2.62100000      -2.95540000      -1.41910000
H        1.24750000      -3.34900000      -4.04260000
