21
Properties=species:S:1:pos:R:3 gdb_102275=T pbc="F F F"
C       -0.04330000       1.54720000       0.16740000
C       -0.05490000       0.03530000      -0.07040000
C        0.77400000      -0.41300000      -1.30170000
C        0.98510000      -1.93020000      -1.29530000
C        1.76730000      -2.44170000      -2.49840000
C        2.34850000      -3.83730000      -2.39130000
O        1.90120000      -1.76310000      -3.49220000
C        0.05470000       0.04780000      -2.56170000
O        0.15250000       1.14890000      -3.03710000
H        0.97100000       1.90020000       0.38200000
H       -0.40130000       2.09340000      -0.70870000
H       -0.67710000       1.80830000       1.02030000
H        0.33960000      -0.48040000       0.81400000
H       -1.08870000      -0.31950000      -0.18750000
H        1.74270000       0.09820000      -1.28150000
H        1.47760000      -2.25210000      -0.37020000
H        0.01480000      -2.45180000      -1.29890000
H        1.58760000      -4.55130000      -2.05760000
H        2.75750000      -4.14750000      -3.35340000
H        3.14460000      -3.84770000      -1.63740000
H       -0.66120000      -0.69750000      -2.98240000
