19
Properties=species:S:1:pos:R:3 gdb_115235=T pbc="F F F"
O        0.00250000       1.44580000       0.09030000
C        0.05020000       0.04200000      -0.04250000
C       -1.34810000      -0.56670000      -0.03860000
C       -1.36450000      -2.09010000      -0.14320000
C       -2.80470000      -2.62220000      -0.03480000
C       -3.59080000      -1.97450000       1.09580000
O       -4.42560000      -2.55970000       1.74230000
C       -3.30560000      -0.48710000       1.31860000
O       -1.93240000      -0.16120000       1.20180000
H       -0.56920000       1.61650000       0.84850000
H        0.54550000      -0.17760000      -0.99380000
H        0.64140000      -0.42350000       0.76310000
H       -1.92650000      -0.12250000      -0.86770000
H       -0.91270000      -2.41150000      -1.08810000
H       -0.75280000      -2.50100000       0.66850000
H       -3.34900000      -2.37690000      -0.95920000
H       -2.84900000      -3.70750000       0.08310000
H       -3.90710000       0.08460000       0.58790000
H       -3.63020000      -0.20790000       2.32280000
