17
Properties=species:S:1:pos:R:3 gdb_46726=T pbc="F F F"
O       -0.02690000      -0.01330000      -0.32110000
C       -0.01180000       1.13700000       0.02550000
O       -1.15560000       1.72500000       0.45300000
C       -1.12910000       3.10000000       0.86490000
C        0.23370000       3.74530000       0.76390000
C        1.08420000       3.46570000      -0.51140000
C        2.34400000       3.81420000       0.32470000
C        1.46870000       2.93020000       1.25210000
C        1.22080000       1.99900000       0.01840000
H       -1.85580000       3.63450000       0.24110000
H       -1.49460000       3.13100000       1.89860000
H        0.19070000       4.78920000       1.09020000
H        0.85580000       3.76050000      -1.53620000
H        3.28750000       3.37890000      -0.01310000
H        2.46320000       4.86120000       0.61670000
H        1.68550000       2.60460000       2.27000000
H        2.07120000       1.42030000      -0.34280000
