21
Properties=species:S:1:pos:R:3 gdb_102367=T pbc="F F F"
C       -0.07180000       1.73510000       0.09990000
C        0.02330000       0.21010000      -0.03760000
C        0.74950000      -0.35820000      -1.31500000
C        0.72940000      -1.89790000      -1.24860000
C        1.40290000      -2.60580000      -2.42930000
C       -0.00930000       0.17630000      -2.52340000
O       -0.91670000      -0.40210000      -3.06360000
C        2.16690000       0.20080000      -1.29680000
O        3.10850000      -0.35670000      -0.79440000
H        0.91270000       2.21050000       0.14560000
H       -0.62920000       2.19280000      -0.72300000
H       -0.59650000       1.98590000       1.02640000
H        0.55180000      -0.20460000       0.82760000
H       -0.98320000      -0.22230000      -0.03730000
H        1.22070000      -2.19380000      -0.31670000
H       -0.31690000      -2.21110000      -1.18350000
H        0.91250000      -2.35940000      -3.37490000
H        2.46150000      -2.34200000      -2.50180000
H        1.34210000      -3.69040000      -2.29960000
H        0.30760000       1.18440000      -2.87820000
H        2.28930000       1.20650000      -1.76170000
