16
Properties=species:S:1:pos:R:3 gdb_56109=T pbc="F F F"
N        0.03990000       1.29610000      -0.19020000
C        0.04630000      -0.01540000       0.18780000
O        1.03220000      -0.55360000       0.65460000
C       -1.28210000      -0.74250000      -0.01320000
C       -1.09090000      -2.25360000      -0.08200000
C       -2.36170000      -3.02990000       0.20060000
O       -3.39970000      -2.51250000       0.55610000
C       -2.25480000      -4.47040000       0.02850000
C       -2.14790000      -5.65990000      -0.12120000
H        0.84810000       1.85490000       0.03070000
H       -0.80390000       1.76390000      -0.47170000
H       -1.93510000      -0.50260000       0.83430000
H       -1.79680000      -0.36590000      -0.90330000
H       -0.69490000      -2.57400000      -1.05320000
H       -0.32720000      -2.55600000       0.64620000
H       -2.06930000      -6.71250000      -0.24760000
