23
Properties=species:S:1:pos:R:3 gdb_122210=T pbc="F F F"
C        0.02800000       1.76490000      -0.06370000
C       -0.25560000       0.26440000      -0.16550000
C        0.52470000      -0.48330000      -1.24000000
C        0.23530000      -1.97090000      -1.35880000
C        0.70010000      -2.78070000      -0.15070000
O        0.46710000      -4.14490000      -0.42990000
C        0.88180000      -4.99420000       0.61170000
C        1.06920000       0.21490000      -2.41570000
O        1.92350000      -0.15540000      -1.32920000
H        1.10380000       1.94910000       0.00390000
H       -0.36060000       2.31390000      -0.92690000
H       -0.44650000       2.18220000       0.82890000
H       -0.03090000      -0.20500000       0.80040000
H       -1.32540000       0.09180000      -0.34030000
H       -0.83970000      -2.12930000      -1.50650000
H        0.74470000      -2.37000000      -2.24110000
H        1.77190000      -2.59660000       0.02880000
H        0.15920000      -2.48530000       0.76390000
H        0.34540000      -4.78350000       1.55120000
H        0.66420000      -6.02030000       0.30500000
H        1.96200000      -4.90360000       0.80890000
H        1.22300000      -0.33990000      -3.34070000
H        0.92010000       1.28470000      -2.54290000
