19
Properties=species:S:1:pos:R:3 gdb_60952=T pbc="F F F"
C        0.05810000       1.52190000      -0.16460000
C        0.01710000      -0.00610000      -0.01290000
C        0.80110000      -0.43330000       1.21430000
O        1.66110000      -1.27520000       1.22890000
C       -1.42150000      -0.52830000       0.11870000
C       -2.33070000      -0.41400000      -1.14890000
C       -2.67390000      -1.90380000      -0.97150000
O       -3.49410000      -2.62400000      -1.45850000
C       -1.61800000      -2.07970000       0.12990000
H        1.08080000       1.87960000      -0.31590000
H       -0.54150000       1.84050000      -1.02220000
H       -0.34510000       2.01710000       0.72610000
H        0.49240000      -0.48700000      -0.87610000
H        0.50100000       0.09710000       2.15070000
H       -1.90370000      -0.06480000       0.98560000
H       -3.17600000       0.27780000      -1.11690000
H       -1.77030000      -0.23490000      -2.07380000
H       -0.73860000      -2.63150000      -0.22040000
H       -1.96810000      -2.54590000       1.05410000
