18
Properties=species:S:1:pos:R:3 gdb_39874=T pbc="F F F"
C       -0.00910000       1.52270000       0.01050000
O        1.16330000       0.69300000      -0.00600000
C       -0.10550000       0.06310000       0.00320000
C       -0.48520000      -0.95180000       1.07270000
C       -2.00480000      -1.04860000       1.32110000
C       -2.09580000      -1.85980000       0.01230000
C       -2.03100000      -1.03380000      -1.28880000
C       -0.50670000      -0.93960000      -1.06990000
N       -0.57000000      -2.05010000      -0.00410000
H       -0.17730000       2.07400000       0.93510000
H       -0.19580000       2.08440000      -0.90430000
H        0.20720000      -1.07570000       1.90740000
H       -2.22360000      -1.67420000       2.18990000
H       -2.57660000      -0.11940000       1.40160000
H       -2.72900000      -2.74870000       0.01360000
H       -2.26730000      -1.64960000      -2.16010000
H       -2.60420000      -0.10380000      -1.34720000
H        0.16870000      -1.05400000      -1.91970000
