18
Properties=species:S:1:pos:R:3 gdb_43713=T pbc="F F F"
N        0.05770000       1.06400000       0.69220000
C       -0.03180000      -0.01130000       0.05560000
C       -1.17110000      -0.91640000      -0.37080000
C       -0.04340000      -1.74540000      -0.98460000
O        0.95220000      -0.79850000      -0.51830000
C        0.32060000      -3.18580000      -0.97580000
C       -0.89580000      -4.03680000      -1.35590000
C       -1.03330000      -3.23350000      -2.69370000
C        0.18390000      -2.38760000      -2.30500000
H        1.02990000       1.36650000       0.77390000
H       -1.71740000      -1.37940000       0.45310000
H       -1.87420000      -0.46330000      -1.07230000
H        1.21420000      -3.52310000      -0.46430000
H       -0.64120000      -5.08380000      -1.53010000
H       -1.74430000      -3.99810000      -0.66480000
H       -0.85070000      -3.85940000      -3.56910000
H       -1.96890000      -2.68620000      -2.84960000
H        0.95660000      -2.01890000      -2.96900000
