18
Properties=species:S:1:pos:R:3 gdb_64873=T pbc="F F F"
C        0.16260000       1.36160000       0.05220000
C       -0.14860000      -0.13760000      -0.02680000
C        0.85330000      -0.93410000      -0.94650000
N        1.41110000      -1.53800000       0.26100000
C        0.43940000      -0.95920000       1.18170000
C        2.37270000      -2.46010000       0.48420000
O        2.63960000      -2.92200000       1.57470000
C       -1.55210000      -0.38290000      -0.30740000
C       -2.71500000      -0.58040000      -0.53970000
H        1.22540000       1.51760000       0.26240000
H       -0.08300000       1.85880000      -0.89050000
H       -0.42060000       1.83310000       0.84810000
H        0.36820000      -1.64550000      -1.62220000
H        1.54980000      -0.30620000      -1.51270000
H        0.87910000      -0.35640000       1.98230000
H       -0.24640000      -1.69330000       1.61410000
H        2.90190000      -2.74120000      -0.45000000
H       -3.74250000      -0.75710000      -0.74280000
