22
Properties=species:S:1:pos:R:3 gdb_14996=T pbc="F F F"
C       -0.05280000       1.56520000       0.00500000
C        0.01410000       0.03610000      -0.01150000
C        0.71970000      -0.52660000      -1.24230000
C        0.86780000      -2.05310000      -1.20860000
C        1.48240000      -2.57170000      -2.51630000
C        0.70170000      -2.02710000      -3.72060000
C        0.56580000      -0.50740000      -3.60940000
O       -0.03240000      -0.12200000      -2.38440000
H        0.95130000       2.00420000       0.02210000
H       -0.56510000       1.93570000      -0.88610000
H       -0.58920000       1.92720000       0.88740000
H        0.53810000      -0.32980000       0.88010000
H       -0.99900000      -0.38360000       0.02290000
H        1.73050000      -0.08000000      -1.31200000
H        1.48240000      -2.34410000      -0.34880000
H       -0.12630000      -2.49580000      -1.06280000
H        2.52760000      -2.23870000      -2.58260000
H        1.50200000      -3.66670000      -2.52720000
H        1.19640000      -2.28770000      -4.66350000
H       -0.30190000      -2.46970000      -3.74470000
H        1.56020000      -0.03630000      -3.70800000
H       -0.07350000      -0.10430000      -4.40090000
