14
Properties=species:S:1:pos:R:3 gdb_44998=T pbc="F F F"
O        0.03190000      -0.00080000       0.07290000
C       -0.03180000       1.19020000      -0.01600000
N       -1.15730000       1.98740000      -0.08860000
C       -0.84340000       3.37550000      -0.00350000
C       -0.05330000       3.84310000       1.19950000
C        0.67370000       3.37130000      -0.04770000
O        1.07660000       2.01020000      -0.05550000
C        1.47370000       4.24310000      -0.84660000
C        2.14610000       4.99060000      -1.50440000
H       -2.04050000       1.59470000       0.19280000
H       -1.43490000       4.06300000      -0.59530000
H       -0.02390000       4.91000000       1.38710000
H       -0.00900000       3.20290000       2.07390000
H        2.74340000       5.64430000      -2.09120000
