15
Properties=species:S:1:pos:R:3 gdb_131149=T pbc="F F F"
O        0.06090000       1.36170000       0.00660000
C       -0.00410000      -0.03110000      -0.00600000
C       -0.49780000      -0.74700000       1.24510000
C       -1.37910000      -0.62260000       0.02580000
C        1.07180000      -0.66940000      -0.79580000
N        1.00730000      -1.86080000      -1.33010000
O        2.27500000      -2.02490000      -1.91340000
C        2.94380000      -0.90250000      -1.66500000
N        2.28100000      -0.02330000      -0.98550000
H        0.98730000       1.60380000       0.13070000
H       -0.07650000      -1.71720000       1.48220000
H       -0.71470000      -0.10460000       2.09080000
H       -2.18840000       0.09720000       0.06240000
H       -1.56350000      -1.50520000      -0.57460000
H        3.95190000      -0.83310000      -2.04720000
