21
Properties=species:S:1:pos:R:3 gdb_41850=T pbc="F F F"
C       -0.01320000       1.54280000      -0.14080000
C        1.43340000       2.05690000      -0.04330000
C        2.19820000       1.45970000       1.15310000
C        1.76610000       1.97850000       2.54230000
C        0.61640000       1.19410000       3.11690000
C        0.15200000       0.09500000       2.52870000
C        0.76260000      -0.41540000       1.24720000
C       -0.05020000       0.01430000       0.00740000
O        2.11150000       0.03380000       1.11260000
H       -0.62750000       1.99970000       0.64240000
H       -0.45210000       1.84250000      -1.09850000
H        1.97680000       1.76320000      -0.94990000
H        1.45830000       3.15170000       0.00360000
H        3.26290000       1.67660000       1.01930000
H        2.61790000       1.92550000       3.23440000
H        1.50490000       3.04310000       2.47780000
H        0.18650000       1.54970000       4.05020000
H       -0.68950000      -0.45680000       2.93880000
H        0.83070000      -1.50860000       1.28050000
H       -1.08170000      -0.34790000       0.08610000
H        0.39920000      -0.46240000      -0.87200000
