21
Properties=species:S:1:pos:R:3 gdb_96603=T pbc="F F F"
O       -0.23780000       1.58680000       0.45490000
C       -0.01960000       0.20650000       0.15040000
C        0.66810000      -0.47770000       1.34530000
C        0.78180000      -1.99940000       1.23320000
O        1.12560000      -2.35650000      -0.10730000
C        0.20660000      -3.22140000      -0.72240000
O       -1.12210000      -2.79770000      -0.63100000
C       -1.41620000      -1.53190000      -1.21990000
C       -1.39540000      -0.34980000      -0.24290000
H        0.60100000       1.96140000       0.74330000
H        0.64260000       0.12130000      -0.72370000
H        1.67110000      -0.04140000       1.44750000
H        0.11620000      -0.22250000       2.25820000
H        1.55640000      -2.38100000       1.91020000
H       -0.16870000      -2.46570000       1.50760000
H        0.54150000      -3.28960000      -1.76760000
H        0.21350000      -4.21830000      -0.25890000
H       -0.73950000      -1.34100000      -2.06590000
H       -2.43040000      -1.62970000      -1.62130000
H       -1.98200000      -0.60690000       0.64730000
H       -1.92140000       0.47740000      -0.73340000
