17
Properties=species:S:1:pos:R:3 gdb_19696=T pbc="F F F"
O       -0.15860000       1.43430000       0.17950000
C       -0.04650000       0.04130000      -0.08250000
C       -1.42830000      -0.56740000       0.06420000
C       -1.40580000      -2.09570000       0.12900000
C       -1.33320000      -2.09590000       1.60970000
C       -1.92940000      -0.63440000       1.53610000
C       -3.28370000      -1.34110000       1.38220000
N       -2.57170000      -2.59020000       0.94630000
H        0.70950000       1.83260000       0.06770000
H        0.33480000      -0.14120000      -1.10020000
H        0.64890000      -0.44480000       0.62100000
H       -2.11280000      -0.09530000      -0.65090000
H       -0.99540000      -2.80210000      -0.58160000
H       -0.76050000      -2.66260000       2.33170000
H       -1.75770000       0.20270000       2.20850000
H       -3.78320000      -1.54940000       2.33170000
H       -4.00430000      -0.93320000       0.66290000
