16
Properties=species:S:1:pos:R:3 gdb_15701=T pbc="F F F"
O       -0.04910000       1.47380000      -0.16200000
C        0.04200000       0.07070000      -0.15200000
C       -1.33230000      -0.59130000       0.03410000
C       -1.37000000      -2.12330000       0.06650000
C       -2.55380000      -2.39950000       1.00570000
O       -2.61150000      -1.27020000       1.90150000
C       -1.94130000      -0.21770000       1.38270000
O       -1.85400000       0.83640000       1.95810000
H       -0.51650000       1.71920000       0.65030000
H        0.46810000      -0.23310000      -1.11430000
H        0.72220000      -0.29550000       0.63640000
H       -2.00530000      -0.19690000      -0.73860000
H       -1.50330000      -2.58240000      -0.91470000
H       -0.44330000      -2.51390000       0.50150000
H       -3.50490000      -2.45910000       0.46470000
H       -2.43970000      -3.29680000       1.61630000
