20
Properties=species:S:1:pos:R:3 gdb_111443=T pbc="F F F"
O        0.10200000       1.42450000       0.02190000
C        0.10900000       0.01120000      -0.05480000
C       -1.30500000      -0.56080000       0.00030000
C       -1.45300000      -2.07530000      -0.16590000
C       -0.86020000      -3.03830000       0.83230000
C       -2.28680000      -2.57120000       0.99820000
C       -2.58540000      -1.36310000       1.86230000
C       -1.47450000      -0.64320000       2.53300000
N       -2.00870000      -0.14640000       1.24920000
H       -0.53530000       1.65820000       0.70690000
H        0.57660000      -0.25410000      -1.00930000
H        0.72870000      -0.43060000       0.74240000
H       -1.86890000      -0.08600000      -0.81230000
H       -1.62810000      -2.44040000      -1.17240000
H       -0.72150000      -4.05840000       0.48820000
H       -0.09640000      -2.71710000       1.52890000
H       -3.08880000      -3.28610000       0.85810000
H       -3.59660000      -1.28080000       2.25120000
H       -1.68200000       0.01230000       3.37520000
H       -0.49580000      -1.10790000       2.57440000
