15
Properties=species:S:1:pos:R:3 gdb_67533=T pbc="F F F"
C       -0.03740000       1.58400000      -0.00830000
C        0.00160000       0.07610000       0.04440000
C       -1.20590000      -0.68360000       0.68420000
O       -1.02970000      -2.07810000       0.45550000
C       -0.31180000      -1.48770000       1.53750000
C        0.93550000      -0.77640000       0.93450000
O        1.50230000      -1.42830000      -0.23390000
C        0.68260000      -0.71570000      -1.09260000
O        0.65980000      -0.76200000      -2.27720000
H        0.95120000       2.00040000      -0.22200000
H       -0.72000000       1.91640000      -0.79710000
H       -0.38710000       2.00270000       0.94110000
H       -2.21220000      -0.31260000       0.83950000
H       -0.44210000      -1.91680000       2.52350000
H        1.68830000      -0.36960000       1.60680000
