21
Properties=species:S:1:pos:R:3 gdb_113654=T pbc="F F F"
C        0.14950000       1.53400000       0.14050000
C       -0.04290000       0.02750000      -0.00390000
C       -1.48590000      -0.42670000       0.17350000
O       -2.37620000       0.36300000       0.42130000
C       -1.72070000      -1.89540000       0.03300000
C       -2.89630000      -2.52520000       0.76580000
C       -2.93480000      -2.44660000      -0.72080000
C       -3.91680000      -1.55410000      -1.43730000
O       -5.11230000      -2.31060000      -1.60520000
H        1.20080000       1.80500000       0.00870000
H       -0.44390000       2.07570000      -0.60050000
H       -0.17620000       1.87490000       1.12640000
H        0.29940000      -0.32880000      -0.98600000
H        0.56940000      -0.52440000       0.72350000
H       -0.81820000      -2.49110000      -0.05690000
H       -2.73510000      -3.48340000       1.24600000
H       -3.51960000      -1.82560000       1.31240000
H       -2.73110000      -3.37020000      -1.25610000
H       -4.08830000      -0.64250000      -0.85470000
H       -3.50140000      -1.25640000      -2.41430000
H       -5.77190000      -1.73220000      -1.99910000
