16
Properties=species:S:1:pos:R:3 gdb_20379=T pbc="F F F"
C        0.02500000       1.51880000      -0.05700000
C        1.53580000       1.92110000       0.03090000
C        2.10940000       0.68690000       0.65170000
C        1.26180000      -0.39410000       0.65360000
C       -0.05440000      -0.04390000       0.01760000
C        2.01330000      -1.43920000       1.22840000
N        3.23850000      -1.02660000       1.56240000
N        3.27800000       0.27850000       1.19130000
H       -0.49900000       1.94160000       0.80530000
H       -0.45460000       1.91970000      -0.95350000
H        1.96400000       2.10850000      -0.96280000
H        1.68330000       2.83420000       0.61720000
H       -0.93040000      -0.37090000       0.58720000
H       -0.15040000      -0.48430000      -0.98350000
H        1.73480000      -2.46430000       1.42560000
H        4.11890000       0.80180000       1.36420000
