23
Properties=species:S:1:pos:R:3 gdb_58234=T pbc="F F F"
C        0.03780000       1.51090000      -0.33090000
C       -0.03350000      -0.01350000      -0.22060000
O        1.00140000      -0.47710000       0.65040000
C       -1.42300000      -0.56250000       0.20290000
C       -2.56060000       0.07430000      -0.60900000
C       -1.42240000      -2.10280000       0.13910000
C       -0.83950000      -2.82850000       1.33620000
C       -2.37330000      -2.84720000      -0.70850000
O       -1.02440000      -2.64520000      -1.13360000
H        1.07550000       1.80320000      -0.51290000
H       -0.57360000       1.90040000      -1.14850000
H       -0.29490000       1.99320000       0.59800000
H        0.21020000      -0.45810000      -1.19120000
H        0.89070000      -0.02920000       1.49680000
H       -1.57110000      -0.28620000       1.25760000
H       -2.58640000       1.15750000      -0.47210000
H       -2.44460000      -0.12600000      -1.67980000
H       -3.53150000      -0.31660000      -0.29320000
H       -1.41940000      -2.60430000       2.23910000
H       -0.86220000      -3.90920000       1.17330000
H        0.19290000      -2.51620000       1.49960000
H       -2.62710000      -3.87200000      -0.43610000
H       -3.12890000      -2.33660000      -1.29940000
