18
Properties=species:S:1:pos:R:3 gdb_38635=T pbc="F F F"
C       -0.03680000       1.52920000       0.05890000
N        1.49460000       1.39520000      -0.02320000
C        1.81400000       0.77580000       1.30010000
C        0.98840000      -0.49730000       1.15030000
C        1.54400000      -1.25460000      -0.07990000
C        0.27090000      -2.05710000      -0.51330000
O       -0.81490000      -1.08600000      -0.34160000
C       -0.02190000       0.01010000       0.02970000
C        1.26010000       0.07400000      -0.80990000
H       -0.40950000       2.06860000       0.93430000
H       -0.40750000       1.98510000      -0.86130000
H        2.89250000       0.61070000       1.38730000
H        1.49000000       1.42510000       2.11810000
H        0.62400000      -1.04170000       2.02110000
H        2.48490000      -1.80980000      -0.08870000
H        0.29850000      -2.38360000      -1.55880000
H        0.08700000      -2.92100000       0.13300000
H        1.26950000       0.19890000      -1.89050000
