15
Properties=species:S:1:pos:R:3 gdb_35833=T pbc="F F F"
C        0.03690000      -1.17170000       0.43430000
C       -0.00370000       0.00150000       0.18000000
C       -0.02100000       1.43060000      -0.14730000
N       -0.80980000       2.23170000       0.81460000
C        0.13860000       2.93420000       1.69930000
C        1.46850000       2.85850000       0.99440000
C        1.39550000       2.02940000      -0.05020000
C        2.44220000       1.67080000      -0.93630000
N        3.27100000       1.37120000      -1.68830000
H        0.06620000      -2.20900000       0.66130000
H       -0.43390000       1.54910000      -1.15600000
H       -1.33890000       2.91830000       0.29150000
H       -0.18940000       3.96260000       1.88620000
H        0.20420000       2.44290000       2.68180000
H        2.36200000       3.37100000       1.32790000
