17
Properties=species:S:1:pos:R:3 gdb_72291=T pbc="F F F"
O       -0.10250000       1.44180000      -0.02070000
C        0.01990000       0.06510000      -0.06420000
C        0.66590000      -0.69380000      -1.22190000
C       -0.35210000      -1.86000000      -0.97020000
O        0.14950000      -3.03410000      -0.34270000
C        1.03390000      -2.75710000       0.70830000
O        0.53120000      -1.85190000       1.67080000
C       -0.22990000      -0.78870000       1.16180000
C       -1.14060000      -0.95550000      -0.00920000
H        0.65150000       1.80130000       0.46000000
H        0.42530000      -0.20210000      -2.16820000
H        1.73850000      -0.90430000      -1.19700000
H       -0.88370000      -2.19920000      -1.85770000
H        1.20580000      -3.70110000       1.23050000
H        1.99050000      -2.37720000       0.31560000
H       -0.63420000      -0.21450000       1.98910000
H       -2.21460000      -0.82290000       0.02330000
