20
Properties=species:S:1:pos:R:3 gdb_9779=T pbc="F F F"
C       -0.33540000       1.39920000       0.02390000
C        0.05930000      -0.09180000      -0.03260000
C        0.84540000      -0.37860000      -1.23480000
C        1.49990000      -0.59840000      -2.21940000
C        0.78510000      -0.56310000       1.23720000
C        2.11650000       0.10220000       1.52980000
C       -0.08940000      -0.95330000       2.40470000
C        0.62880000      -2.01690000       1.60560000
H        0.54860000       2.04170000       0.03920000
H       -0.93060000       1.67190000      -0.85140000
H       -0.92520000       1.59780000       0.92380000
H       -0.87020000      -0.67380000      -0.10100000
H        2.07090000      -0.80120000      -3.09140000
H        2.00430000       1.17620000       1.71420000
H        2.57880000      -0.33640000       2.41920000
H        2.80880000      -0.02580000       0.69120000
H        0.26790000      -0.73280000       3.40510000
H       -1.16640000      -0.87460000       2.29410000
H        0.03750000      -2.65160000       0.95380000
H        1.47340000      -2.52030000       2.06370000
