13
Properties=species:S:1:pos:R:3 gdb_133323=T pbc="F F F"
N        0.01260000       1.39770000       0.13420000
C       -0.04580000       0.04320000       0.05130000
C       -1.17730000      -0.72180000       0.02740000
F       -2.38120000      -0.12800000       0.03960000
C       -1.10950000      -2.13290000      -0.01160000
N        0.01690000      -2.79170000      -0.03320000
N        1.12980000      -2.02930000      -0.02130000
C        1.24180000      -0.65320000       0.01030000
O        2.32040000      -0.07230000      -0.00280000
H        0.92440000       1.78850000      -0.05530000
H       -0.79910000       1.93880000      -0.10980000
H       -2.02110000      -2.71910000      -0.02320000
H        1.99860000      -2.54540000      -0.05000000
