20
Properties=species:S:1:pos:R:3 gdb_102846=T pbc="F F F"
C        0.51830000      -0.87250000       1.36350000
C       -0.04860000      -0.19170000       0.11160000
C        0.74440000      -0.41360000      -1.19470000
C        2.22430000       0.01750000      -1.08760000
C        2.36120000       1.47130000      -0.69300000
O        2.91080000       1.86250000       0.30390000
C        0.68440000      -1.87990000      -1.69240000
C       -0.67850000      -2.33610000      -1.95690000
N       -1.76260000      -2.67850000      -2.16480000
H        0.61000000      -1.95690000       1.24100000
H        1.50120000      -0.47440000       1.63170000
H       -0.14660000      -0.70160000       2.21490000
H       -1.07860000      -0.52590000      -0.05560000
H       -0.10890000       0.88790000       0.29400000
H        0.27100000       0.20330000      -1.96940000
H        2.77300000      -0.59180000      -0.36390000
H        2.70290000      -0.10600000      -2.06940000
H        1.89670000       2.18880000      -1.40990000
H        1.26590000      -1.98490000      -2.61540000
H        1.14080000      -2.55320000      -0.95830000
