16
Properties=species:S:1:pos:R:3 gdb_30537=T pbc="F F F"
C        0.07440000       1.40260000       0.20600000
C        0.01800000      -0.06320000      -0.02710000
N       -0.24700000      -0.69560000      -1.12540000
C       -0.16840000      -2.04050000      -0.78910000
C        0.14890000      -2.16830000       0.52760000
O        0.27270000      -0.88170000       1.03300000
N        0.34080000      -3.26170000       1.31430000
C        0.64850000      -3.13370000       2.55240000
N        0.77870000      -4.21510000       3.37020000
H        1.06430000       1.71240000       0.55860000
H       -0.14490000       1.91530000      -0.73100000
H       -0.65510000       1.71420000       0.96160000
H       -0.34270000      -2.82620000      -1.50550000
H        0.78740000      -2.17070000       3.05070000
H        1.28330000      -4.11380000       4.23390000
H        0.81100000      -5.12160000       2.92870000
