11
Properties=species:S:1:pos:R:3 gdb_21296=T pbc="F F F"
C        0.04900000       1.36630000       0.00720000
O       -0.04760000      -0.07330000       0.00260000
C       -1.26550000      -0.55070000       0.01100000
N       -2.37610000       0.10050000       0.02300000
O       -3.35620000      -0.94470000       0.02710000
C       -2.73670000      -2.14560000       0.01740000
O       -3.23350000      -3.21960000       0.01700000
O       -1.36600000      -1.89210000       0.00650000
H        1.11570000       1.58190000      -0.00170000
H       -0.43930000       1.77700000      -0.87980000
H       -0.42310000       1.77020000       0.90590000
