19
Properties=species:S:1:pos:R:3 gdb_94085=T pbc="F F F"
C        0.07090000       1.59480000      -0.09810000
C        0.02290000       0.06700000      -0.07520000
C        0.86080000      -0.55210000      -1.20050000
O        0.88220000      -1.97360000      -1.09590000
C        1.36530000      -2.38970000       0.15330000
O        0.57060000      -1.92910000       1.21320000
C        0.52940000      -0.50480000       1.25450000
C        1.26850000      -3.91540000       0.16960000
O        2.21250000      -4.64190000       0.31090000
H        1.09460000       1.96410000       0.03290000
H       -0.30540000       1.98720000      -1.04830000
H       -0.54180000       2.02100000       0.70270000
H       -1.01150000      -0.27280000      -0.20820000
H        0.44780000      -0.32190000      -2.18620000
H        1.89190000      -0.16100000      -1.16120000
H        2.41560000      -2.07370000       0.28900000
H        1.53610000      -0.11030000       1.47510000
H       -0.12880000      -0.23960000       2.08610000
H        0.23100000      -4.28760000       0.03690000
