15
Properties=species:S:1:pos:R:3 gdb_26443=T pbc="F F F"
O       -0.07020000       1.42650000       0.15490000
C        0.00350000       0.02850000       0.05720000
C        0.77970000      -0.36680000      -1.19780000
O        1.18490000       0.47520000      -1.96120000
C        0.69450000      -0.55520000       1.26000000
N        0.84980000      -1.83240000       1.53070000
C        1.56720000      -1.86320000       2.70600000
C        1.84190000      -0.59150000       3.13750000
N        1.28120000       0.23850000       2.19310000
H        0.35240000       1.75740000      -0.65630000
H       -1.00010000      -0.42100000      -0.02900000
H        0.95220000      -1.44790000      -1.34210000
H        1.84120000      -2.79680000       3.17290000
H        2.35920000      -0.20810000       4.00080000
H        1.24890000       1.24470000       2.17450000
