21
Properties=species:S:1:pos:R:3 gdb_80868=T pbc="F F F"
C       -0.06650000       1.48540000      -0.06700000
C        0.06740000      -0.02170000       0.06940000
O        0.91570000      -0.57130000      -0.98630000
C        1.91850000      -1.28360000      -0.23060000
C        2.28050000      -0.32650000       0.91980000
C        0.78930000      -0.58250000       1.31100000
C        0.20950000      -0.29560000       2.67450000
C        1.05130000      -2.05470000       0.78650000
O        0.00270000      -2.84340000       0.31080000
H        0.88570000       2.00110000       0.08200000
H       -0.43240000       1.73540000      -1.06720000
H       -0.78830000       1.87010000       0.66130000
H       -0.92910000      -0.47650000      -0.01600000
H        2.63330000      -1.74110000      -0.91280000
H        2.98150000      -0.76100000       1.63570000
H        2.58770000       0.68400000       0.64900000
H        0.17010000       0.77930000       2.88250000
H       -0.81050000      -0.68940000       2.75170000
H        0.80760000      -0.76440000       3.46250000
H        1.62440000      -2.63980000       1.50950000
H       -0.22110000      -2.49790000      -0.56340000
