19
Properties=species:S:1:pos:R:3 gdb_41461=T pbc="F F F"
C       -0.01490000       1.52440000       0.27900000
C        1.45770000       1.66750000      -0.21080000
C        1.48570000       0.19190000      -0.68080000
O        2.06400000      -0.06300000      -1.92910000
C        2.94120000      -1.20270000      -1.80090000
C        2.66980000      -1.77310000      -0.41950000
C        1.88150000      -0.91630000       0.22040000
C        0.62970000      -0.86970000       1.07430000
C       -0.01410000       0.01890000      -0.05520000
H       -0.20420000       1.77240000       1.32720000
H       -0.71310000       2.09430000      -0.33880000
H        1.56340000       2.34420000      -1.06150000
H        2.20710000       1.93780000       0.53910000
H        2.69620000      -1.93330000      -2.58470000
H        3.97970000      -0.87820000      -1.96830000
H        2.94510000      -2.78130000      -0.13680000
H        0.16470000      -1.83970000       1.26200000
H        0.72070000      -0.33630000       2.02500000
H       -0.85700000      -0.42340000      -0.58500000
