16
Properties=species:S:1:pos:R:3 gdb_125930=T pbc="F F F"
C       -0.65030000       1.54710000      -0.34080000
C        0.01190000       0.20830000      -0.08790000
C        1.00650000      -0.35730000      -1.19110000
C        2.03240000      -0.33120000      -0.08020000
N        3.17990000      -0.69210000       0.39120000
N        3.04250000      -0.29690000       1.72560000
C        1.79610000       0.21770000       2.08990000
O        1.39570000       0.56140000       3.17790000
N        1.19060000       0.23910000       0.82330000
H        0.08310000       2.29070000      -0.66650000
H       -1.41480000       1.44550000      -1.11770000
H       -1.13370000       1.91510000       0.56860000
H       -0.71600000      -0.54150000       0.23500000
H        0.75850000      -1.34420000      -1.58490000
H        1.19020000       0.33280000      -2.01750000
H        3.78370000      -0.49140000       2.37590000
