19
Properties=species:S:1:pos:R:3 gdb_71247=T pbc="F F F"
C       -0.10110000       1.47610000       0.07210000
C        0.06960000      -0.01300000       0.03240000
C        0.93410000      -0.78060000      -1.00250000
C        0.81280000      -1.91850000       0.01710000
C       -0.71560000      -1.98560000       0.43380000
C       -0.33620000      -1.65530000       1.89860000
C        0.76820000      -0.85960000       1.18940000
O        1.85130000      -0.23200000       1.78100000
O       -1.18360000      -0.72150000      -0.05600000
H        0.86970000       1.96210000       0.20030000
H       -0.55340000       1.83640000      -0.85760000
H       -0.74900000       1.76790000       0.90400000
H        0.51390000      -0.89430000      -2.00470000
H        1.95970000      -0.40540000      -1.04340000
H        1.40390000      -2.83300000       0.02610000
H       -1.38410000      -2.79790000       0.15750000
H       -1.08740000      -1.14330000       2.50540000
H        0.07750000      -2.51960000       2.42900000
H        2.32700000      -0.87480000       2.31770000
