19
Properties=species:S:1:pos:R:3 gdb_62061=T pbc="F F F"
O        0.78650000       1.35550000       0.04220000
C        0.10490000       0.12500000       0.01820000
C        0.40010000      -0.63150000      -1.29640000
N        0.15090000       0.28970000      -2.40280000
C        0.76190000      -0.09000000      -3.65480000
C        0.20000000      -1.18690000      -4.53420000
C        0.09260000       0.26750000      -4.94520000
C        0.50940000      -0.68540000       1.17710000
N        0.80430000      -1.35610000       2.06980000
H        0.79250000       1.62970000      -0.89080000
H       -0.98660000       0.27720000       0.09920000
H        1.46140000      -0.89750000      -1.31060000
H       -0.18000000      -1.56490000      -1.33990000
H       -0.84730000       0.42710000      -2.52980000
H        1.84440000      -0.00040000      -3.62090000
H        0.88800000      -1.83040000      -5.07130000
H       -0.70970000      -1.67930000      -4.20610000
H       -0.88740000       0.73260000      -4.89640000
H        0.70710000       0.62850000      -5.76190000
