9
Properties=species:S:1:pos:R:3 gdb_61=T pbc="F F F"
N       -0.16030000       1.08530000      -0.45400000
C        0.18650000      -0.08760000       0.14760000
N        1.28980000      -0.46430000       0.67930000
C       -0.94200000      -1.08440000       0.20420000
O       -2.01800000      -0.89010000      -0.30580000
H        0.54570000       1.73840000      -0.74690000
H       -1.04680000       1.09570000      -0.93610000
H        2.01740000       0.24990000       0.59880000
H       -0.67740000      -2.01000000       0.74750000
