16
Properties=species:S:1:pos:R:3 gdb_14082=T pbc="F F F"
C       -0.12540000       1.46680000      -0.06880000
N        0.03870000       0.02180000       0.01150000
C        1.38390000      -0.50940000      -0.17850000
C        0.73630000      -0.51190000       1.15840000
C        1.19250000       0.18110000       2.46490000
N        0.68480000      -1.00980000       3.15600000
C        0.28160000      -1.69320000       2.02400000
O       -0.19460000      -2.77970000       1.84720000
H        0.74280000       2.03420000       0.30580000
H       -0.29000000       1.74420000      -1.11410000
H       -1.00800000       1.76400000       0.50570000
H        1.45490000      -1.43180000      -0.74800000
H        2.20120000       0.19730000      -0.32510000
H        2.27220000       0.33580000       2.56120000
H        0.66260000       1.10450000       2.72070000
H        0.79670000      -1.31870000       4.10910000
