22
Properties=species:S:1:pos:R:3 gdb_6543=T pbc="F F F"
C        0.35330000       1.49770000       0.19460000
C        0.02130000       0.00500000       0.01650000
C        0.38340000      -0.75820000       1.30030000
O       -1.38810000      -0.14950000      -0.21800000
C        0.69560000      -0.54540000      -1.25420000
C        0.13620000       0.01140000      -2.55600000
C        2.17730000      -0.83970000      -1.23660000
C        1.18400000      -1.97440000      -1.31090000
H        1.42830000       1.64970000       0.33080000
H        0.02720000       2.07960000      -0.66990000
H       -0.15500000       1.89740000       1.08020000
H       -0.09090000      -0.27030000       2.15960000
H        0.01380000      -1.78460000       1.25570000
H        1.45970000      -0.77410000       1.49420000
H       -1.85160000       0.24680000       0.52720000
H        0.27840000       1.09430000      -2.63490000
H        0.64370000      -0.44500000      -3.41150000
H       -0.93300000      -0.19460000      -2.63810000
H        2.74950000      -0.58980000      -2.12390000
H        2.73120000      -0.71440000      -0.31240000
H        1.08040000      -2.61100000      -0.44120000
H        1.07310000      -2.50100000      -2.25290000
