18
Properties=species:S:1:pos:R:3 gdb_107105=T pbc="F F F"
O        0.45640000       0.24920000      -0.91810000
C       -0.09840000       0.32980000       0.37440000
C       -1.43650000      -0.35730000       0.43890000
C       -2.28740000      -0.64590000       1.68600000
C       -2.79740000      -1.95930000       1.01010000
C       -4.25320000      -2.06180000       0.66020000
O       -4.97040000      -1.09930000       0.50590000
C       -1.91110000      -1.61130000      -0.23420000
N       -2.26060000      -0.30180000      -0.76440000
H       -0.29080000       0.35800000      -1.52380000
H        0.60450000      -0.14550000       1.06920000
H       -0.22040000       1.37750000       0.70410000
H       -1.69230000      -0.85920000       2.57690000
H       -3.05100000       0.09770000       1.92610000
H       -2.44900000      -2.86630000       1.50920000
H       -4.63950000      -3.08940000       0.47890000
H       -1.40350000      -2.32340000      -0.87340000
H       -3.23220000      -0.03900000      -0.60160000
