15
Properties=species:S:1:pos:R:3 gdb_54078=T pbc="F F F"
O        0.12490000       0.19940000       0.15830000
C        0.93930000       0.77860000       0.75770000
O        1.77270000       1.32780000       1.34890000
C       -2.80180000       2.50520000       0.21910000
N       -2.79770000       1.30020000      -0.38920000
C       -3.72640000       0.64530000      -1.06980000
N       -3.37710000      -0.62270000      -1.57980000
H       -3.44000000      -0.66990000      -2.59320000
H       -3.95900000      -1.36940000      -1.20980000
C       -1.67770000       2.98610000       0.88470000
C       -0.72350000       3.44640000       1.47780000
H       -3.71790000       3.07800000       0.16450000
H       -1.92220000       0.78100000      -0.32250000
H       -4.69460000       1.12120000      -1.19330000
H        0.11120000       3.85120000       1.99210000
