22
Properties=species:S:1:pos:R:3 gdb_111491=T pbc="F F F"
C       -1.07890000       0.97950000      -0.06400000
C        0.02230000      -0.07930000      -0.11870000
C        1.17540000       0.26870000      -1.10320000
C        2.38990000      -0.47740000      -0.56920000
N        3.03160000       0.22180000       0.56500000
C        2.11270000      -0.91390000       0.82220000
C        0.70810000      -0.47540000       1.23570000
C        0.74760000       0.60330000       2.32000000
O       -0.54670000       0.68490000       2.90890000
H       -0.68990000       1.94650000       0.27210000
H       -1.50810000       1.12840000      -1.06130000
H       -1.88040000       0.69220000       0.61970000
H       -0.42970000      -1.00700000      -0.49350000
H        0.92600000      -0.03170000      -2.12570000
H        1.37660000       1.34580000      -1.11710000
H        3.01610000      -1.06070000      -1.23680000
H        3.99100000      -0.10340000       0.66190000
H        2.53100000      -1.82780000       1.23300000
H        0.17410000      -1.32540000       1.67490000
H        1.50140000       0.32440000       3.07330000
H        1.06200000       1.56460000       1.89510000
H       -0.56210000       1.45100000       3.48950000
