21
Properties=species:S:1:pos:R:3 gdb_113460=T pbc="F F F"
C        0.39030000       1.44700000       0.25790000
C       -0.32450000       0.17300000      -0.20920000
C        0.33120000      -0.43710000      -1.42400000
O        1.60310000      -1.08920000      -1.20330000
C        0.50020000      -1.88010000      -1.61260000
C        0.03840000      -3.09430000      -0.77820000
C        0.07020000      -3.93190000      -2.06940000
C       -0.82220000      -3.31890000      -3.10790000
C        0.54070000      -2.71450000      -2.87580000
H        1.43390000       1.23040000       0.50410000
H        0.38230000       2.21460000      -0.52370000
H       -0.09100000       1.86800000       1.14550000
H       -0.33590000      -0.56660000       0.59880000
H       -1.37150000       0.39650000      -0.45290000
H        0.32080000       0.18880000      -2.32010000
H        0.81680000      -3.37450000      -0.06450000
H       -0.92340000      -3.02870000      -0.25840000
H        0.41240000      -4.95660000      -2.13690000
H       -0.92480000      -3.87990000      -4.03140000
H       -1.71990000      -2.77860000      -2.81460000
H        1.29290000      -2.63970000      -3.65110000
