19
Properties=species:S:1:pos:R:3 gdb_51649=T pbc="F F F"
O       -0.26950000       0.91440000       1.12350000
C        0.24150000       1.18760000       0.06880000
C        1.33680000       2.22690000      -0.12010000
N        1.23040000       2.86350000      -1.42100000
C        0.19810000       3.91440000      -1.50390000
C        0.95310000       5.22870000      -1.59350000
N        1.98510000       5.35460000      -0.54220000
C        2.36650000       4.90840000      -1.89870000
C        2.47810000       3.39720000      -1.99440000
H       -0.04730000       0.67830000      -0.87960000
H        1.33600000       2.91900000       0.73400000
H        2.28170000       1.66660000      -0.08330000
H       -0.42140000       3.78920000      -2.40300000
H       -0.46410000       3.86210000      -0.63340000
H        0.46270000       6.11710000      -1.97760000
H        2.23020000       6.33520000      -0.42970000
H        2.98300000       5.54500000      -2.52490000
H        3.34380000       2.99850000      -1.45730000
H        2.57720000       3.10980000      -3.05160000
