15
Properties=species:S:1:pos:R:3 gdb_9818=T pbc="F F F"
C       -0.32170000       1.43750000       0.02190000
C       -0.03390000      -0.04810000      -0.04330000
C        0.94400000      -0.58690000      -1.01560000
N        1.26300000      -0.58120000       0.42540000
C       -1.13610000      -0.98620000       0.39620000
O       -1.59660000      -1.86980000      -0.28700000
C       -1.66840000      -0.85840000       1.83360000
O       -1.34750000       0.00060000       2.61090000
H        0.54870000       2.00030000      -0.33100000
H       -1.16960000       1.70240000      -0.61940000
H       -0.55120000       1.74780000       1.04330000
H        0.78850000      -1.57070000      -1.44560000
H        1.44810000       0.12660000      -1.66180000
H        1.88460000       0.19010000       0.65980000
H       -2.40070000      -1.65840000       2.07410000
