17
Properties=species:S:1:pos:R:3 gdb_52773=T pbc="F F F"
C        0.09720000       1.52410000      -0.06970000
C        0.04370000       0.07010000      -0.03810000
C       -0.01490000      -1.13370000      -0.00740000
C       -0.01060000      -2.58820000      -0.01230000
O        0.83090000      -3.10510000      -1.00730000
C       -0.02900000      -3.36590000       1.36140000
C       -1.47880000      -2.88900000       1.60010000
C       -1.34820000      -3.38250000       0.14100000
O       -0.56800000      -4.53510000       0.63830000
H        0.83190000       1.91210000       0.64410000
H        0.37390000       1.88820000      -1.06510000
H       -0.87550000       1.95930000       0.18390000
H        1.50730000      -2.44440000      -1.18380000
H        0.78610000      -3.53280000       2.06580000
H       -2.05920000      -3.55810000       2.23380000
H       -1.66750000      -1.83140000       1.78880000
H       -2.11070000      -3.57060000      -0.61480000
