16
Properties=species:S:1:pos:R:3 gdb_34983=T pbc="F F F"
C       -0.30170000      -1.29190000      -0.13590000
C       -0.12670000      -0.11720000       0.05470000
C       -0.01550000       1.31280000       0.11000000
C        0.54260000       2.12710000       1.24130000
C        1.39830000       1.50430000       2.31360000
O        1.65350000       0.10690000       2.16790000
C        2.63380000       1.02240000       1.67180000
C        2.52120000       1.30620000       0.17920000
N        1.26030000       2.05600000      -0.04860000
H       -0.43580000      -2.33920000      -0.24670000
H       -0.81060000       1.80220000      -0.45280000
H        0.06570000       3.07320000       1.48650000
H        1.34370000       1.87680000       3.33240000
H        3.60330000       0.98800000       2.16420000
H        3.34900000       1.94510000      -0.14600000
H        2.54080000       0.38680000      -0.41470000
