15
Properties=species:S:1:pos:R:3 gdb_6680=T pbc="F F F"
N       -0.04860000       0.31960000      -1.07590000
C        0.06970000       0.00320000       0.23600000
O        0.81680000       0.55200000       1.02050000
C       -0.83630000      -1.13630000       0.70570000
O       -1.60000000      -1.66440000      -0.36580000
C       -2.48730000      -2.69010000       0.01470000
C       -1.78360000      -4.03010000       0.20910000
O       -2.27490000      -4.96780000       0.77670000
H        0.51280000       1.06670000      -1.44830000
H       -0.69530000      -0.17840000      -1.66270000
H       -0.19420000      -1.90030000       1.16660000
H       -1.49090000      -0.73930000       1.49530000
H       -3.05650000      -2.43940000       0.92130000
H       -3.20580000      -2.81200000      -0.80590000
H       -0.77240000      -4.07420000      -0.25820000
