20
Properties=species:S:1:pos:R:3 gdb_10182=T pbc="F F F"
C        0.05820000       1.68970000      -0.04040000
C       -0.01510000       0.16060000       0.01470000
C        0.60380000      -0.49390000      -1.22650000
C        0.65070000      -2.03510000      -1.16150000
N       -0.68740000      -2.61560000      -1.22590000
C       -0.72960000      -4.05180000      -0.96710000
C        1.45910000      -2.55180000      -2.28260000
N        2.11290000      -2.94800000      -3.14890000
H        1.09640000       2.03280000      -0.10380000
H       -0.47350000       2.07920000      -0.91500000
H       -0.38940000       2.13960000       0.85070000
H        0.50290000      -0.20130000       0.91280000
H       -1.06580000      -0.13750000       0.12250000
H        0.05080000      -0.20540000      -2.12710000
H        1.62950000      -0.12950000      -1.35000000
H        1.19230000      -2.32460000      -0.23850000
H       -1.27470000      -2.13160000      -0.55740000
H       -0.20370000      -4.58330000      -1.76600000
H       -0.27300000      -4.34810000      -0.00630000
H       -1.77050000      -4.38520000      -0.97190000
