21
Properties=species:S:1:pos:R:3 gdb_117810=T pbc="F F F"
C        0.10490000       1.54940000      -0.08190000
C        0.02710000       0.00950000      -0.00300000
C        0.66530000      -0.48600000       1.31590000
O        2.01250000      -0.09490000       1.46930000
C       -1.43330000      -0.50830000      -0.05980000
C       -2.31450000       0.00190000      -1.19860000
O       -3.58900000      -0.59630000      -1.01680000
C        0.80660000      -0.54960000      -1.18370000
O        1.81610000      -1.21040000      -1.10330000
H        1.10850000       1.87750000       0.19770000
H       -0.12010000       1.92810000      -1.08420000
H       -0.61160000       1.99820000       0.61430000
H        0.11410000      -0.05280000       2.15810000
H        0.55490000      -1.57920000       1.37680000
H        2.49930000      -0.57520000       0.78710000
H       -1.43620000      -1.60450000      -0.09520000
H       -1.92450000      -0.23190000       0.88160000
H       -2.38390000       1.09920000      -1.16530000
H       -1.89040000      -0.26970000      -2.17790000
H       -4.17560000      -0.27400000      -1.70740000
H        0.39150000      -0.29820000      -2.18520000
