19
Properties=species:S:1:pos:R:3 gdb_11411=T pbc="F F F"
C        0.06420000       1.56950000      -0.01750000
C        0.01760000       0.03880000      -0.04380000
C       -1.39280000      -0.54510000       0.05900000
C       -1.43550000      -2.09130000      -0.01260000
C       -2.64250000      -2.48640000       0.85070000
C       -2.81470000      -1.31410000       1.82250000
O       -3.51420000      -1.27030000       2.81000000
N       -2.02980000      -0.29450000       1.34610000
H        1.08820000       1.93310000      -0.14390000
H       -0.54340000       1.99990000      -0.82130000
H       -0.30500000       1.97070000       0.93270000
H        0.46190000      -0.32330000      -0.97980000
H        0.62410000      -0.37000000       0.77370000
H       -2.00350000      -0.11990000      -0.75550000
H       -1.49500000      -2.44640000      -1.04370000
H       -0.51400000      -2.49150000       0.42400000
H       -3.56370000      -2.56620000       0.26170000
H       -2.52400000      -3.42480000       1.39520000
H       -2.12740000       0.62770000       1.74100000
