18
Properties=species:S:1:pos:R:3 gdb_17620=T pbc="F F F"
C        0.19630000       1.34210000      -0.07320000
N       -0.15030000      -0.06400000       0.02030000
C       -0.43870000      -0.57610000       1.34590000
C       -0.16390000      -0.82140000      -1.11850000
O        0.02790000      -0.36880000      -2.23380000
N       -0.47130000      -2.19460000      -0.88350000
C        0.65770000      -3.11880000      -0.68750000
C       -0.12910000      -3.11970000      -1.95020000
H        1.09110000       1.56340000       0.52340000
H        0.38690000       1.58230000      -1.11760000
H       -0.62430000       1.96770000       0.30040000
H       -1.11950000       0.10990000       1.86440000
H       -0.91500000      -1.55150000       1.27010000
H        0.47240000      -0.66650000       1.95430000
H        1.65990000      -2.69880000      -0.72670000
H        0.50930000      -3.88690000       0.06640000
H       -0.86120000      -3.90090000      -2.12990000
H        0.32890000      -2.68450000      -2.83260000
