18
Properties=species:S:1:pos:R:3 gdb_84287=T pbc="F F F"
O       -0.25950000       1.40960000       0.36670000
C        0.01990000       0.05160000       0.04230000
C        0.62150000      -0.65720000       1.25800000
C       -0.10540000      -1.73500000       1.58260000
C       -0.86250000      -1.82700000       2.88450000
C       -2.04390000      -0.91520000       2.37940000
N       -2.22950000      -1.19370000       0.91040000
C       -1.27630000      -0.73090000      -0.16980000
C       -1.11490000      -2.03990000       0.49720000
H        0.56360000       1.90650000       0.32030000
H        0.60950000      -0.00020000      -0.88720000
H        1.21500000      -0.08570000       1.96690000
H       -1.21790000      -2.82980000       3.14000000
H       -0.34030000      -1.39680000       3.74110000
H       -2.99500000      -1.15060000       2.86610000
H       -1.80330000       0.13640000       2.55400000
H       -1.79090000      -0.60910000      -1.11790000
H       -1.28320000      -3.02470000       0.07000000
