22
Properties=species:S:1:pos:R:3 gdb_115938=T pbc="F F F"
O        0.00230000       1.43360000      -0.02050000
C        0.03550000       0.01310000      -0.00410000
C       -1.40080000      -0.49900000      -0.00840000
C       -2.15950000      -0.11900000      -1.28540000
C       -3.63260000      -0.51870000      -1.14650000
C       -3.81320000      -1.94950000      -0.66990000
C       -3.10970000      -3.08300000      -1.32390000
N       -2.73620000      -2.67020000       0.02850000
C       -1.42440000      -2.02160000       0.20500000
H        0.90710000       1.75630000      -0.05950000
H        0.57010000      -0.38150000      -0.88460000
H        0.55930000      -0.35970000       0.89130000
H       -1.91130000      -0.02040000       0.83940000
H       -2.07450000       0.95630000      -1.46130000
H       -1.69880000      -0.61780000      -2.14940000
H       -4.10560000       0.14990000      -0.41560000
H       -4.17300000      -0.37370000      -2.08990000
H       -4.79580000      -2.15260000      -0.24520000
H       -3.58280000      -4.05900000      -1.40710000
H       -2.42280000      -2.84960000      -2.13660000
H       -0.70210000      -2.49310000      -0.47660000
H       -1.08260000      -2.24830000       1.22240000
