17
Properties=species:S:1:pos:R:3 gdb_125583=T pbc="F F F"
C       -0.03620000       1.53000000      -0.03590000
C       -0.00990000       0.02900000      -0.01510000
N       -0.03310000      -0.59170000      -1.15620000
N       -0.00920000      -1.92700000      -1.11960000
C        0.03890000      -2.73780000       0.02990000
N        0.06090000      -4.01490000       0.02090000
N        0.06270000      -2.03790000       1.23480000
C        0.04020000      -0.74460000       1.22370000
C        0.06700000      -0.02880000       2.54590000
H        0.85250000       1.95610000       0.44360000
H       -0.07380000       1.87710000      -1.06970000
H       -0.90780000       1.92600000       0.49770000
H       -0.02860000      -2.36490000      -2.02880000
H        0.03900000      -4.38010000      -0.93220000
H        0.10440000      -0.76030000       3.35270000
H        0.93720000       0.63400000       2.61510000
H       -0.82100000       0.60210000       2.66790000
