19
Properties=species:S:1:pos:R:3 gdb_81501=T pbc="F F F"
C       -0.23040000       1.55300000       0.77250000
C       -0.09410000       0.06770000       0.49030000
C        1.08610000      -0.44850000      -0.38750000
N        1.99850000      -0.07030000       0.76070000
C        0.83320000      -0.80870000       1.38590000
C        0.88200000      -1.88870000       0.23220000
C       -0.30390000      -2.79400000      -0.12080000
C        2.10130000      -2.70030000       0.24130000
N        3.04480000      -3.36990000       0.23990000
H        0.73520000       2.00380000       1.00180000
H       -0.66260000       2.06580000      -0.09370000
H       -0.90680000       1.71810000       1.61840000
H       -1.06390000      -0.37290000       0.26250000
H        1.32910000      -0.21130000      -1.42480000
H        2.83470000      -0.66070000       0.76010000
H        0.77530000      -1.00010000       2.45890000
H       -1.25100000      -2.25570000      -0.14690000
H       -0.14700000      -3.25420000      -1.10090000
H       -0.39160000      -3.60160000       0.61210000
