18
Properties=species:S:1:pos:R:3 gdb_108804=T pbc="F F F"
C        0.12030000       1.56170000      -0.09880000
C       -0.05330000       0.03920000       0.04810000
C        0.60470000      -0.52070000       1.26680000
C        0.06860000      -1.06910000       2.36480000
C        1.16200000      -1.38670000       3.34590000
O        1.17140000      -2.71860000       3.81510000
C        2.43980000      -1.08700000       2.53100000
O        3.56890000      -1.39320000       2.84100000
N        2.01980000      -0.46500000       1.37770000
H        1.17640000       1.84290000      -0.15410000
H       -0.37010000       1.91730000      -1.00930000
H       -0.31880000       2.08560000       0.75500000
H       -1.11680000      -0.21370000       0.08940000
H        0.35250000      -0.46000000      -0.84310000
H       -0.98650000      -1.19080000       2.55790000
H        1.13310000      -0.67590000       4.19280000
H        2.08710000      -2.90170000       4.06720000
H        2.64230000      -0.31140000       0.59920000
