20
Properties=species:S:1:pos:R:3 gdb_87186=T pbc="F F F"
C       -0.16850000       1.49440000       0.00850000
C        0.04150000      -0.00260000       0.04670000
C        1.38640000      -0.63470000      -0.25980000
C        0.82060000      -0.70070000       1.13010000
C        1.45460000       0.01740000       2.29560000
O        0.21460000      -1.93940000       1.50180000
C        1.05060000      -2.98390000       1.75340000
N        0.30660000      -4.10030000       2.02370000
O        2.25710000      -2.94620000       1.71470000
H        0.72730000       2.04230000       0.31510000
H       -0.41530000       1.81980000      -1.00780000
H       -0.98960000       1.80250000       0.66540000
H       -0.81140000      -0.58240000      -0.29610000
H        1.41040000      -1.54880000      -0.84050000
H        2.23790000       0.01990000      -0.41640000
H        1.84790000       0.98900000       1.98850000
H        0.72160000       0.18270000       3.09270000
H        2.28160000      -0.57560000       2.69280000
H       -0.66660000      -3.98800000       2.25130000
H        0.80210000      -4.87060000       2.43830000
