22
Properties=species:S:1:pos:R:3 gdb_6175=T pbc="F F F"
C       -0.02210000       1.52420000      -0.17100000
C        0.02000000       0.02250000       0.12290000
O        0.68770000      -0.24060000       1.35970000
C       -1.36310000      -0.59550000       0.09100000
C       -1.93440000      -1.19260000      -1.17850000
C       -1.60270000      -2.08700000      -0.00510000
C       -0.42680000      -3.04050000      -0.11610000
C       -2.76290000      -2.64510000       0.79950000
H        0.98490000       1.94820000      -0.13130000
H       -0.44980000       1.71980000      -1.15950000
H       -0.64190000       2.04560000       0.56920000
H        0.65300000      -0.46160000      -0.62850000
H        0.14500000       0.12860000       2.06520000
H       -2.07910000      -0.05700000       0.71310000
H       -2.97570000      -1.00330000      -1.41850000
H       -1.28260000      -1.23480000      -2.04660000
H        0.36000000      -2.65860000      -0.77100000
H        0.02270000      -3.22410000       0.86550000
H       -0.75460000      -4.00360000      -0.52480000
H       -3.14990000      -3.56580000       0.34670000
H       -2.45240000      -2.88600000       1.82340000
H       -3.59020000      -1.93080000       0.86000000
