14
Properties=species:S:1:pos:R:3 gdb_51062=T pbc="F F F"
O        0.09560000      -0.00820000       0.13720000
C        0.10960000       1.17410000       0.26610000
O        1.04040000       1.95710000      -0.35680000
C        0.92500000       3.31940000      -0.18830000
C        2.05550000       4.30770000       0.07230000
C        1.25070000       5.38240000      -0.69940000
C        0.14770000       4.42110000      -0.96590000
N        0.10060000       5.28210000       0.27030000
C        0.88160000       4.21080000       1.02920000
H       -0.58670000       1.76600000       0.88600000
H        3.10620000       4.10470000       0.21760000
H        1.52710000       6.31170000      -1.18280000
H       -0.65260000       4.40860000      -1.69590000
H        0.81930000       4.03230000       2.09490000
