19
Properties=species:S:1:pos:R:3 gdb_37326=T pbc="F F F"
C       -0.09720000       1.47120000      -0.10440000
C        1.26900000       0.85690000       0.04200000
C        2.11160000       0.91240000       1.28650000
C        1.71350000       1.59060000       2.56990000
C        1.72660000       0.08210000       2.50850000
C        0.43960000      -0.68090000       2.47660000
O       -0.78020000       0.06450000       2.37360000
C       -0.39080000      -0.73570000       1.25010000
C        0.02710000      -0.03000000      -0.00170000
H       -0.53080000       1.97790000       0.74920000
H       -0.36100000       1.89450000      -1.06710000
H        1.86370000       0.84100000      -0.86530000
H        3.17500000       0.92740000       1.07140000
H        2.49040000       2.08250000       3.14430000
H        0.73960000       2.06160000       2.62560000
H        2.52790000      -0.43370000       3.02730000
H        0.38340000      -1.51890000       3.17110000
H       -1.02100000      -1.61150000       1.09690000
H       -0.13440000      -0.60930000      -0.90480000
