17
Properties=species:S:1:pos:R:3 gdb_57111=T pbc="F F F"
O       -0.18500000       1.35270000       0.04950000
C        0.03670000      -0.05590000       0.07030000
C        0.61980000      -0.53340000      -1.18120000
C        1.14080000      -0.86360000      -2.21290000
C        0.90810000      -0.43580000       1.28990000
C        0.21420000      -0.09080000       2.61800000
O       -0.45420000      -1.30320000       2.94360000
C        0.43460000      -2.30690000       2.53490000
O        1.06700000      -1.84980000       1.34880000
H        0.56870000       1.75950000      -0.39190000
H       -0.94890000      -0.51280000       0.21980000
H        1.58590000      -1.17640000      -3.12510000
H        1.88940000       0.04460000       1.19310000
H        0.95030000       0.17310000       3.39160000
H       -0.52090000       0.70900000       2.52550000
H        1.20010000      -2.49910000       3.30800000
H       -0.12990000      -3.22080000       2.32660000
