21
Properties=species:S:1:pos:R:3 gdb_84132=T pbc="F F F"
C        0.31390000       1.67950000      -0.15430000
C        0.07060000       0.17330000       0.04860000
C        0.56510000      -0.65330000      -1.11580000
C        1.60520000      -1.43500000      -0.81410000
C        2.35590000      -2.34430000      -1.73420000
C        1.98900000      -1.29060000       0.64360000
C        0.85520000      -0.44200000       1.22100000
C        0.85760000       0.09440000       2.58470000
O        0.07500000      -1.05640000       2.25690000
H        1.38120000       1.89280000      -0.27490000
H       -0.19920000       2.03470000      -1.05400000
H       -0.05860000       2.26340000       0.69340000
H       -0.99950000       0.01490000       0.23400000
H        0.12260000      -0.57440000      -2.10400000
H        1.95130000      -2.31460000      -2.74960000
H        3.41810000      -2.07140000      -1.78220000
H        2.31900000      -3.38300000      -1.38170000
H        2.04930000      -2.24900000       1.17290000
H        2.97040000      -0.80680000       0.75140000
H        1.71270000      -0.08910000       3.23580000
H        0.29000000       0.99400000       2.82120000
