12
Properties=species:S:1:pos:R:3 gdb_21419=T pbc="F F F"
N       -0.05270000       1.25460000       0.37980000
C       -0.00470000       0.03010000       0.03140000
N        1.13310000      -0.69750000      -0.29510000
N        1.22400000      -2.00840000      -0.67290000
C        0.11410000      -2.64300000      -0.73180000
N       -1.11060000      -2.07770000      -0.44180000
C       -1.29540000      -0.75650000      -0.05000000
O       -2.38650000      -0.30910000       0.19370000
H        0.87690000       1.67980000       0.39880000
H        2.02600000      -0.22970000      -0.26010000
H        0.12130000      -3.68460000      -1.02510000
H       -1.95440000      -2.63050000      -0.50520000
