17
Properties=species:S:1:pos:R:3 gdb_46840=T pbc="F F F"
O        0.04080000      -0.04790000       0.20100000
C       -0.00360000       1.14290000       0.02050000
C       -1.32300000       1.90950000      -0.15390000
C       -1.22550000       3.22620000      -0.96760000
C        0.17590000       3.84850000      -0.83930000
O        1.11380000       2.82750000      -1.21370000
C        1.24940000       2.03840000      -0.02950000
C        1.18000000       3.06500000       1.08920000
C        0.54870000       4.13260000       0.60870000
H       -2.05550000       1.22130000      -0.58290000
H       -1.66830000       2.12470000       0.86490000
H       -1.39180000       3.01540000      -2.02870000
H       -2.00300000       3.93140000      -0.65130000
H        0.30260000       4.69740000      -1.51730000
H        2.15680000       1.43430000      -0.08410000
H        1.52710000       2.88690000       2.09790000
H        0.27310000       5.03350000       1.14080000
