19
Properties=species:S:1:pos:R:3 gdb_96058=T pbc="F F F"
O       -0.15330000       1.49880000       0.57700000
C        0.00040000       0.17400000       0.08860000
C        0.66660000      -0.74360000       1.12400000
C       -0.49800000      -1.02240000       2.08020000
O       -1.67310000      -1.02950000       1.26790000
C       -1.39200000      -0.46990000      -0.01960000
C       -2.51880000       0.48440000      -0.42570000
C       -3.86700000      -0.20200000      -0.44010000
O       -4.61390000      -0.21290000      -1.38650000
H        0.72260000       1.87520000       0.70550000
H        0.51400000       0.16960000      -0.88200000
H        1.00810000      -1.66590000       0.64210000
H        1.52600000      -0.27490000       1.61150000
H       -0.41620000      -1.98710000       2.59090000
H       -0.57900000      -0.23250000       2.83860000
H       -1.32980000      -1.28870000      -0.75360000
H       -2.54910000       1.30000000       0.30540000
H       -2.32870000       0.90750000      -1.41620000
H       -4.13400000      -0.70800000       0.51180000
