15
Properties=species:S:1:pos:R:3 gdb_1505=T pbc="F F F"
C        0.06240000       1.53010000       0.00320000
C       -0.09000000       0.01420000      -0.04780000
N        0.64220000      -0.54560000      -1.17250000
C        0.81310000      -1.89400000      -1.31090000
N        0.46660000      -2.74000000      -0.41600000
C        1.48950000      -2.29430000      -2.60460000
O        1.73700000      -3.43720000      -2.88340000
H        1.11310000       1.81770000       0.10600000
H       -0.33460000       2.00340000      -0.90270000
H       -0.48950000       1.93710000       0.85450000
H        0.30170000      -0.45280000       0.86070000
H       -1.15180000      -0.26830000      -0.10080000
H        0.70850000       0.01920000      -2.00500000
H        0.74860000      -3.67000000      -0.73200000
H        1.75050000      -1.45970000      -3.29590000
