27
Properties=species:S:1:pos:R:3 gdb_99777=T pbc="F F F"
C       -0.42630000       1.53270000       0.03530000
C        0.22320000       0.14500000       0.01920000
C        0.93550000      -0.26860000       1.32710000
C       -0.00810000      -0.27910000       2.56340000
C       -1.13740000      -1.31790000       2.47240000
C        0.76000000      -0.44350000       3.88330000
C        1.67340000      -1.58260000       1.11130000
C        2.96030000      -1.60600000       0.32170000
C        2.97940000      -1.89120000       1.80180000
H        0.29300000       2.30360000       0.33540000
H       -0.79770000       1.79740000      -0.95990000
H       -1.27550000       1.58800000       0.72330000
H       -0.52880000      -0.60900000      -0.24610000
H        0.96730000       0.11200000      -0.78520000
H        1.69880000       0.49930000       1.52900000
H       -0.48160000       0.71060000       2.59720000
H       -0.74530000      -2.34060000       2.48060000
H       -1.81140000      -1.22350000       3.33030000
H       -1.74070000      -1.19790000       1.56750000
H        1.55380000       0.30510000       3.98130000
H        0.08520000      -0.32550000       4.73810000
H        1.22210000      -1.43230000       3.95960000
H        1.02330000      -2.43790000       0.94450000
H        3.13480000      -2.42510000      -0.36720000
H        3.36480000      -0.65500000      -0.01160000
H        3.40040000      -1.13330000       2.45380000
H        3.16520000      -2.90800000       2.13120000
