21
Properties=species:S:1:pos:R:3 gdb_96188=T pbc="F F F"
O       -0.05500000       1.45670000       0.06470000
C        0.04170000       0.03620000       0.03200000
C        0.85450000      -0.53160000       1.20050000
C        0.77400000      -2.06340000       1.21220000
C       -0.66180000      -2.51980000       1.50630000
C       -1.70480000      -1.90510000       0.55280000
O       -2.84760000      -1.37650000       1.27420000
C       -2.41920000      -0.01670000       1.03290000
C       -1.38780000      -0.49040000      -0.00830000
H        0.83810000       1.81510000       0.09500000
H        0.54350000      -0.28320000      -0.89830000
H        1.89580000      -0.19640000       1.10980000
H        0.47080000      -0.12680000       2.14570000
H        1.10930000      -2.45550000       0.24180000
H        1.45490000      -2.47810000       1.96270000
H       -0.73110000      -3.61230000       1.48510000
H       -0.93350000      -2.20830000       2.52110000
H       -2.02730000      -2.63580000      -0.19740000
H       -3.23480000       0.61470000       0.66770000
H       -1.98780000       0.44610000       1.93010000
H       -1.78920000      -0.36980000      -1.01700000
