19
Properties=species:S:1:pos:R:3 gdb_56546=T pbc="F F F"
C        0.11010000       1.42750000      -0.18730000
C       -0.01520000      -0.08910000       0.05040000
C        0.66360000      -0.50030000       1.28250000
C        1.22060000      -0.80860000       2.30220000
N       -1.41300000      -0.53750000       0.04190000
C       -2.26270000      -0.27490000       1.19040000
C       -1.86530000      -1.17680000      -1.09120000
N       -3.18320000      -1.61590000      -1.03580000
O       -1.18740000      -1.30980000      -2.09880000
H        1.16320000       1.72100000      -0.20250000
H       -0.34270000       1.67960000      -1.14930000
H       -0.38790000       1.99820000       0.60210000
H        0.44340000      -0.60240000      -0.79940000
H        1.72370000      -1.09690000       3.19200000
H       -3.23290000       0.11900000       0.87280000
H       -2.42590000      -1.16930000       1.80860000
H       -1.78500000       0.47020000       1.82810000
H       -3.55180000      -1.92980000      -0.15140000
H       -3.40060000      -2.22340000      -1.81120000
