20
Properties=species:S:1:pos:R:3 gdb_78166=T pbc="F F F"
C       -0.07510000       1.54440000       0.01950000
C        0.07940000       0.04040000      -0.05170000
C        0.76560000      -0.69120000      -1.17100000
C        1.38850000      -0.69220000       0.21080000
C        2.63400000       0.10730000       0.09250000
N        3.50810000       0.25800000       0.99310000
O        2.70390000       0.66900000      -1.15820000
C        1.72050000       0.09730000      -2.05590000
C        2.42270000      -0.76200000      -3.09930000
H        0.80340000       2.07070000      -0.36010000
H       -0.94340000       1.86960000      -0.56420000
H       -0.23100000       1.86350000       1.05480000
H       -0.77400000      -0.50130000       0.34930000
H        0.31230000      -1.58100000      -1.59230000
H        1.40310000      -1.54620000       0.87370000
H        4.28510000       0.82030000       0.64160000
H        1.22650000       0.94550000      -2.54460000
H        2.90820000      -1.62310000      -2.62950000
H        1.70110000      -1.12940000      -3.83640000
H        3.18380000      -0.17770000      -3.62280000
