17
Properties=species:S:1:pos:R:3 gdb_93980=T pbc="F F F"
O       -0.14130000       1.37350000       0.16220000
C        0.10180000      -0.00930000      -0.03300000
C       -1.20770000      -0.72940000       0.29800000
N       -1.10000000      -2.11200000      -0.12270000
C       -0.24170000      -2.49140000      -1.10470000
C       -0.23890000      -3.95700000      -1.40680000
O       -0.94250000      -4.75030000      -0.82810000
N        0.55620000      -1.75350000      -1.79180000
C        0.52650000      -0.32930000      -1.47600000
H        0.68160000       1.84800000       0.00740000
H        0.88120000      -0.37350000       0.65430000
H       -1.40370000      -0.68060000       1.37310000
H       -2.02960000      -0.20770000      -0.21200000
H       -1.64330000      -2.84370000       0.30830000
H        0.47000000      -4.23690000      -2.20790000
H       -0.16600000       0.18420000      -2.15950000
H        1.52100000       0.09040000      -1.67410000
