16
Properties=species:S:1:pos:R:3 gdb_125916=T pbc="F F F"
C       -0.44810000       1.46100000       0.02220000
C        0.13500000       0.06310000       0.01680000
C        0.99230000      -0.29170000      -1.26120000
C        2.26960000      -0.74760000      -0.62030000
C        2.15130000      -0.56210000       0.71600000
O        3.22130000      -0.89030000       1.40710000
N        4.18650000      -1.35020000       0.44170000
C        3.58600000      -1.24440000      -0.72950000
O        1.01810000      -0.07250000       1.20640000
H        0.34280000       2.20790000      -0.09560000
H       -1.15370000       1.57030000      -0.80770000
H       -0.97960000       1.65930000       0.95640000
H       -0.64980000      -0.68420000       0.16510000
H        0.48660000      -1.05520000      -1.86050000
H        1.11550000       0.59290000      -1.89780000
H        4.14950000      -1.54320000      -1.60330000
