15
Properties=species:S:1:pos:R:3 gdb_52478=T pbc="F F F"
C        0.03600000       1.49420000      -0.01260000
C        0.02820000       0.04320000      -0.00340000
C        0.01940000      -1.16710000       0.00470000
C        0.00790000      -2.52580000       0.01390000
C       -0.00640000      -3.73680000       0.02400000
C       -0.00400000      -5.20130000       0.01080000
O       -1.27700000      -5.77020000       0.14570000
C        0.64490000      -5.65260000      -1.30660000
O        0.04710000      -6.35200000      -2.08220000
H        0.97180000       1.88650000       0.40100000
H       -0.07050000       1.88510000      -1.03060000
H       -0.78810000       1.89550000       0.58780000
H        0.65060000      -5.55910000       0.82530000
H       -1.45760000      -6.19920000      -0.70680000
H        1.67020000      -5.28360000      -1.49640000
