12
Properties=species:S:1:pos:R:3 gdb_23954=T pbc="F F F"
C        0.19320000      -1.19120000      -0.00630000
C        0.07790000       0.00750000       0.00220000
C       -0.07190000       1.39880000       0.01190000
C       -1.16390000       2.23600000       0.03170000
N       -0.71630000       3.55630000       0.03280000
C        0.57020000       3.45570000       0.01430000
O        1.04880000       2.19360000       0.00060000
C       -2.52890000       1.88240000       0.04880000
C       -3.69290000       1.57770000       0.06330000
H        0.29060000      -2.24900000      -0.01400000
H        1.30110000       4.24940000       0.00840000
H       -4.72050000       1.31000000       0.07620000
