22
Properties=species:S:1:pos:R:3 gdb_120757=T pbc="F F F"
C        0.39870000       1.46180000      -0.08570000
C        0.50520000      -0.06020000       0.03320000
C        0.33260000      -0.55990000       1.47520000
C        0.42010000      -2.06360000       1.57220000
O        1.71020000      -2.67950000       1.37820000
C        1.08290000      -2.80560000       2.65840000
C        1.79090000      -2.15360000       3.81060000
C        3.19220000      -2.54270000       4.11090000
N        2.88650000      -1.21020000       3.55930000
H        1.16130000       1.96010000       0.52270000
H        0.53140000       1.79000000      -1.12120000
H       -0.57970000       1.81970000       0.25440000
H       -0.24920000      -0.53480000      -0.60830000
H        1.47920000      -0.39700000      -0.34110000
H        1.07650000      -0.09330000       2.12750000
H       -0.65250000      -0.25450000       1.85500000
H       -0.37340000      -2.59370000       1.03960000
H        0.70870000      -3.80950000       2.87290000
H        1.14030000      -1.87920000       4.63930000
H        3.54860000      -2.54890000       5.13680000
H        3.66230000      -3.27090000       3.45520000
H        3.08180000      -1.23450000       2.55920000
