15
Properties=species:S:1:pos:R:3 gdb_46679=T pbc="F F F"
O        0.04030000       0.01140000      -0.09240000
C        0.05510000       1.20040000      -0.01350000
O       -1.08640000       1.95900000       0.15060000
C       -0.85110000       3.41060000       0.09530000
C        0.52260000       3.50780000      -0.56130000
C        1.95920000       3.80830000      -0.01990000
C        1.68830000       2.98150000       1.24180000
C        1.14940000       2.23240000      -0.01750000
O        2.41390000       2.53840000      -0.70470000
H       -1.66130000       3.82860000      -0.50370000
H       -0.91620000       3.80900000       1.11010000
H        0.47660000       3.52530000      -1.65150000
H        2.59450000       4.67950000      -0.17810000
H        2.56630000       2.51830000       1.68900000
H        0.98090000       3.35730000       1.98170000
