20
Properties=species:S:1:pos:R:3 gdb_16392=T pbc="F F F"
C       -0.10450000       1.53020000      -0.10860000
C        0.03950000       0.01230000      -0.02200000
C        0.99620000      -0.56180000      -1.09480000
C        1.20390000      -2.03100000      -0.67560000
C        1.93480000      -1.27600000       0.45280000
O        2.31310000      -0.25710000      -0.52970000
C        0.80340000      -0.56890000       1.23750000
C        1.33030000       0.43830000       2.25730000
H        0.87440000       2.01570000      -0.14070000
H       -0.64800000       1.80880000      -1.01830000
H       -0.66020000       1.93670000       0.74180000
H       -0.95090000      -0.44790000      -0.11030000
H        0.87300000      -0.23930000      -2.12990000
H        0.33320000      -2.64580000      -0.43130000
H        1.89540000      -2.55440000      -1.33650000
H        2.77730000      -1.68840000       1.01020000
H        0.17860000      -1.30740000       1.75220000
H        2.05020000       1.12110000       1.79810000
H        0.52460000       1.03510000       2.69550000
H        1.83650000      -0.08170000       3.07820000
