25
Properties=species:S:1:pos:R:3 gdb_104864=T pbc="F F F"
C        0.40690000      -0.95290000       1.09080000
C       -0.09300000      -0.21720000      -0.15840000
C        0.79450000      -0.35860000      -1.41710000
C        2.23430000       0.17720000      -1.18280000
C        2.34950000       1.66240000      -0.82280000
C        0.85760000      -1.83340000      -1.93060000
C        0.74600000      -1.76700000      -3.47520000
C        0.13730000      -0.40540000      -3.70740000
C        0.15720000       0.34330000      -2.60740000
H        0.55470000      -2.02060000       0.89680000
H        1.35700000      -0.54770000       1.45260000
H       -0.31810000      -0.86370000       1.90600000
H       -1.09450000      -0.58470000      -0.41530000
H       -0.21890000       0.84680000       0.07740000
H        2.70900000      -0.42150000      -0.39580000
H        2.81380000      -0.01100000      -2.09510000
H        3.40010000       1.95050000      -0.71550000
H        1.91250000       2.30130000      -1.59700000
H        1.85040000       1.89630000       0.12300000
H        1.76060000      -2.35180000      -1.59610000
H        0.00210000      -2.39050000      -1.53400000
H        1.72600000      -1.84610000      -3.96670000
H        0.13760000      -2.58210000      -3.88390000
H       -0.23790000      -0.08690000      -4.67440000
H       -0.21160000       1.36180000      -2.54190000
