12
Properties=species:S:1:pos:R:3 gdb_21358=T pbc="F F F"
N       -0.02810000       1.40460000       0.01040000
C        1.28750000       1.82150000      -0.00020000
C        2.14480000       0.73580000      -0.01460000
C        1.28490000      -0.38840000      -0.01250000
C       -0.03070000       0.03030000       0.00280000
C       -0.77960000      -1.16610000       0.00340000
N        0.02000000      -2.21420000      -0.01020000
O        1.34510000      -1.73020000      -0.02050000
H       -0.82640000       2.01290000       0.02160000
H        1.52150000       2.87480000       0.00330000
H        3.22110000       0.77240000      -0.02500000
H       -1.84630000      -1.33630000       0.01290000
