23
Properties=species:S:1:pos:R:3 gdb_84026=T pbc="F F F"
C       -0.04240000       1.56910000       0.12880000
C        0.03730000       0.06360000      -0.00540000
C        0.66970000      -0.62710000      -1.20910000
C        1.29680000       0.13000000      -2.36900000
C        2.70800000      -0.37130000      -2.72780000
C        3.79950000       0.08740000      -1.74830000
C        3.64830000      -0.39440000      -0.30380000
O        2.48790000       0.12080000       0.34310000
C        1.34820000      -0.65810000       0.14150000
H        0.90950000       2.04430000      -0.11330000
H       -0.81870000       1.98780000      -0.52110000
H       -0.28760000       1.84420000       1.16010000
H       -0.81720000      -0.45960000       0.41660000
H        0.20020000      -1.56300000      -1.50400000
H        0.64180000       0.02930000      -3.24250000
H        1.34640000       1.20250000      -2.15450000
H        2.70150000      -1.46830000      -2.78980000
H        2.97260000      -0.01040000      -3.72940000
H        4.77940000      -0.25240000      -2.11030000
H        3.83610000       1.18470000      -1.73750000
H        3.64500000      -1.49460000      -0.26190000
H        4.50140000      -0.04450000       0.28810000
H        1.36460000      -1.60230000       0.68940000
