19
Properties=species:S:1:pos:R:3 gdb_95903=T pbc="F F F"
C       -0.16850000       1.56630000      -0.01170000
C        0.07330000       0.05350000       0.01830000
N        0.93700000      -0.37420000      -1.08810000
C        1.43940000      -1.70570000      -0.74240000
C        1.83540000      -1.52240000       0.72940000
C        0.85000000      -0.45830000       1.28520000
O        1.50450000       0.64300000       1.88820000
C       -1.23590000      -0.65220000      -0.03440000
N       -2.23970000      -1.21980000      -0.12720000
H        0.79170000       2.07910000       0.02580000
H       -0.69230000       1.84190000      -0.93150000
H       -0.77600000       1.88190000       0.83940000
H        0.45150000      -0.35300000      -1.97850000
H        0.67650000      -2.49480000      -0.84350000
H        2.28630000      -1.97070000      -1.38120000
H        1.80930000      -2.45810000       1.29210000
H        2.84180000      -1.10050000       0.79670000
H        0.13690000      -0.90180000       1.99030000
H        1.94570000       0.32580000       2.68210000
