18
Properties=species:S:1:pos:R:3 gdb_16575=T pbc="F F F"
C       -0.01620000       1.55630000      -0.03690000
O        1.35490000       1.98430000      -0.03830000
C        2.18010000       0.82290000       0.05640000
C        1.36840000      -0.26000000      -0.66130000
C        0.02390000       0.01710000       0.03440000
C        0.14740000      -0.44930000       1.49480000
O        1.12340000       0.30160000       2.20100000
C        2.36840000       0.43080000       1.53080000
H       -0.53600000       2.00010000       0.81940000
H       -0.49730000       1.90600000      -0.95960000
H        3.14620000       1.05260000      -0.40290000
H        1.32590000      -0.06950000      -1.73770000
H        1.74170000      -1.27410000      -0.49490000
H       -0.83730000      -0.45400000      -0.44620000
H       -0.78900000      -0.29730000       2.04130000
H        0.38390000      -1.52690000       1.52160000
H        2.95390000      -0.50340000       1.59050000
H        2.91250000       1.21290000       2.06760000
