17
Properties=species:S:1:pos:R:3 gdb_19141=T pbc="F F F"
O       -0.11280000       0.12150000       0.84140000
C        0.05440000       0.96380000      -0.01130000
C        1.23210000       1.87290000      -0.06850000
C        1.81670000       2.27220000       1.28460000
C        2.54190000       1.27960000       0.44600000
N        1.38060000       2.85990000      -1.10830000
C        0.94620000       2.57630000      -2.47230000
C        0.21890000       3.57130000      -1.63170000
H       -0.69800000       1.09550000      -0.81870000
H        2.20370000       3.28240000       1.33500000
H        1.28400000       1.91010000       2.15600000
H        2.50570000       0.23830000       0.74330000
H        3.42960000       1.60480000      -0.08260000
H        1.62330000       2.90860000      -3.25490000
H        0.44730000       1.63260000      -2.68190000
H       -0.77180000       3.30010000      -1.27300000
H        0.36010000       4.63640000      -1.79500000
