15
Properties=species:S:1:pos:R:3 gdb_40400=T pbc="F F F"
C        0.72450000       1.39000000       0.23220000
O        1.09770000       0.16920000      -0.41070000
C       -0.23320000       0.28290000       0.08670000
C       -0.58630000      -0.58850000       1.23190000
O        0.26630000      -0.65590000       2.36880000
C       -0.05800000      -1.87360000       1.69620000
C       -1.50760000      -2.31330000       2.15320000
O       -1.99330000      -1.34470000       3.08050000
C       -2.04520000      -1.03440000       1.69300000
H        1.17990000       1.55600000       1.20550000
H        0.64710000       2.25860000      -0.41970000
H       -1.00400000       0.35480000      -0.68200000
H        0.74770000      -2.48840000       1.31630000
H       -1.92940000      -3.30990000       2.17050000
H       -2.99630000      -0.76430000       1.25080000
