19
Properties=species:S:1:pos:R:3 gdb_82623=T pbc="F F F"
C       -0.14820000       1.57020000       0.04960000
C        0.03010000       0.05520000       0.01180000
C        0.91070000      -0.54220000      -1.11490000
C        2.34330000      -0.07100000      -0.76870000
C        2.32440000      -0.60700000       0.65630000
C        1.40690000      -1.81870000       0.57200000
O        0.94980000      -1.94050000      -0.76310000
C        0.86760000      -0.54330000       1.14630000
O        0.50640000      -0.45690000       2.48090000
H        0.80710000       2.10140000       0.10630000
H       -0.68260000       1.93170000      -0.83520000
H       -0.73850000       1.85900000       0.92620000
H       -0.95130000      -0.43260000      -0.01580000
H        0.56650000      -0.43090000      -2.14150000
H        3.08740000      -0.56530000      -1.39970000
H        2.47430000       1.01080000      -0.84170000
H        3.16260000      -0.57400000       1.33910000
H        1.53350000      -2.74520000       1.11290000
H        0.72150000       0.42860000       2.79450000
