20
Properties=species:S:1:pos:R:3 gdb_13289=T pbc="F F F"
O       -0.09400000       1.41810000       0.23780000
C        0.00600000       0.00600000       0.13040000
C       -1.40280000      -0.55770000       0.00730000
C       -1.42350000      -2.08210000      -0.14070000
C       -2.83480000      -2.63980000      -0.19470000
C       -3.02680000      -4.16880000      -0.07700000
C       -3.88980000      -3.82120000       1.15160000
O       -3.56560000      -2.42070000       1.03980000
H        0.79320000       1.77590000       0.33350000
H        0.60280000      -0.28470000      -0.75080000
H        0.50300000      -0.42710000       1.01430000
H       -1.98000000      -0.27050000       0.89250000
H       -1.89070000      -0.08820000      -0.85580000
H       -0.89670000      -2.38560000      -1.05670000
H       -0.89580000      -2.54970000       0.70120000
H       -3.37990000      -2.19530000      -1.04100000
H       -3.53930000      -4.65760000      -0.90680000
H       -2.10850000      -4.71490000       0.15070000
H       -4.96560000      -4.00190000       1.02830000
H       -3.57060000      -4.24140000       2.11260000
