20
Properties=species:S:1:pos:R:3 gdb_93247=T pbc="F F F"
C       -0.13600000       1.54030000      -0.00490000
C        0.02150000       0.01750000       0.02370000
C        0.76960000      -0.46210000      -1.21680000
O        1.04850000      -1.87280000      -1.24470000
C        1.33440000      -2.56630000      -0.11800000
O        1.87070000      -3.63890000      -0.20860000
C        0.85610000      -2.00820000       1.23750000
N        1.61560000      -2.52570000       2.36800000
C        0.76940000      -0.48230000       1.26180000
H        0.84010000       2.03850000       0.00710000
H       -0.67050000       1.87160000      -0.90130000
H       -0.69770000       1.88750000       0.86720000
H       -0.97790000      -0.43940000       0.01570000
H        0.19830000      -0.26750000      -2.12830000
H        1.72760000       0.06980000      -1.30230000
H       -0.17060000      -2.39650000       1.32950000
H        1.74930000      -3.52400000       2.22320000
H        2.55310000      -2.12970000       2.34500000
H        1.78220000      -0.05210000       1.27580000
H        0.27860000      -0.16380000       2.18650000
