20
Properties=species:S:1:pos:R:3 gdb_106248=T pbc="F F F"
C        0.08320000       1.52910000      -0.11720000
C        0.02310000       0.01010000       0.09510000
C       -1.37930000      -0.52680000       0.07060000
N       -2.28690000      -0.26900000       1.20460000
C       -2.81140000      -1.57730000       1.16260000
O       -3.67330000      -2.10610000       1.80570000
C       -1.88320000      -1.96840000       0.02660000
C       -2.13080000      -0.99850000      -1.14280000
C       -3.49840000      -0.52780000      -1.58510000
H        1.11640000       1.88720000      -0.08800000
H       -0.34520000       1.81180000      -1.08450000
H       -0.47270000       2.05710000       0.66470000
H        0.60480000      -0.49600000      -0.68420000
H        0.48180000      -0.24730000       1.05700000
H       -2.87720000       0.55180000       1.28640000
H       -1.33480000      -2.89350000      -0.08660000
H       -1.46160000      -1.22700000      -1.97270000
H       -4.14400000      -0.28770000      -0.73640000
H       -3.41550000       0.36740000      -2.21100000
H       -4.00150000      -1.30220000      -2.17260000
