16
Properties=species:S:1:pos:R:3 gdb_109528=T pbc="F F F"
C       -0.42710000       1.13900000      -0.15880000
O        0.46350000       0.06090000       0.10190000
C        0.90760000      -0.57050000      -1.03110000
C        1.37920000      -1.98930000      -0.87880000
C        1.34130000      -2.64860000       0.39060000
C        1.33290000      -3.22380000       1.44490000
C        0.07220000      -1.69100000      -1.65360000
C       -1.19440000      -2.03440000      -1.08020000
N       -2.23350000      -2.30350000      -0.64880000
H        0.05120000       1.90460000      -0.78620000
H       -1.34330000       0.78960000      -0.64960000
H       -0.67970000       1.57390000       0.80920000
H        1.44520000       0.05950000      -1.74250000
H        2.20570000      -2.27600000      -1.52260000
H        1.31090000      -3.72320000       2.38200000
H        0.12440000      -1.81170000      -2.73050000
