21
Properties=species:S:1:pos:R:3 gdb_61604=T pbc="F F F"
C        0.36310000       1.64830000      -0.10850000
C        0.03610000       0.14710000       0.01750000
C        0.58740000      -0.70010000      -1.15950000
C       -0.16020000      -0.46120000      -2.45270000
N        0.24230000       0.68440000      -3.29160000
C        0.42040000      -0.68380000      -3.80720000
C        1.83180000      -1.15020000      -4.07320000
C        0.54130000      -0.37750000       1.29140000
N        0.95020000      -0.79340000       2.28950000
H        1.44460000       1.80710000      -0.07940000
H       -0.00660000       2.03180000      -1.06020000
H       -0.08890000       2.21450000       0.70970000
H       -1.05560000       0.02520000       0.04250000
H        1.65060000      -0.47920000      -1.28510000
H        0.50640000      -1.76160000      -0.89850000
H       -1.23120000      -0.65410000      -2.37220000
H       -0.57110000       1.12510000      -3.71210000
H       -0.29830000      -1.01290000      -4.55750000
H        2.53160000      -0.75870000      -3.33210000
H        1.88980000      -2.24400000      -4.06430000
H        2.16550000      -0.80430000      -5.05720000
