17
Properties=species:S:1:pos:R:3 gdb_10554=T pbc="F F F"
O       -0.30190000       0.58010000      -1.12040000
C       -0.07630000       0.24990000       0.24860000
C       -1.28710000      -0.53860000       0.73980000
C       -1.34770000      -1.95760000       0.18000000
C       -2.65350000      -2.46270000      -0.35050000
N       -1.56950000      -2.13780000      -1.27540000
C       -0.41370000      -2.88150000       0.78040000
C        0.36720000      -3.62070000       1.31910000
H        0.54210000       0.78810000      -1.53020000
H        0.83340000      -0.35430000       0.36940000
H        0.04310000       1.16300000       0.85130000
H       -1.27080000      -0.58210000       1.83400000
H       -2.19000000       0.00980000       0.44710000
H       -2.88540000      -3.52050000      -0.27190000
H       -3.51040000      -1.79760000      -0.26950000
H       -1.68910000      -1.21540000      -1.68700000
H        1.05240000      -4.28920000       1.77840000
