18
Properties=species:S:1:pos:R:3 gdb_82084=T pbc="F F F"
N        0.10260000       1.17430000       0.41450000
C        0.08190000      -0.01970000      -0.24520000
O        0.97330000      -0.39910000      -0.98050000
C       -1.19650000      -0.83270000      -0.05330000
C       -1.02610000      -2.34590000       0.08700000
C       -0.30550000      -2.65730000       1.35950000
C       -1.78010000      -2.33470000       1.42550000
C       -2.01580000      -0.83720000       1.30370000
O       -1.62800000       0.00460000       2.37930000
H        0.95020000       1.71710000       0.35770000
H       -0.52650000       1.31780000       1.19240000
H       -1.86410000      -0.56700000      -0.87890000
H       -1.11030000      -3.05950000      -0.72080000
H       -0.06690000      -3.70250000       1.52460000
H        0.45350000      -1.97670000       1.74090000
H       -2.49830000      -3.04640000       1.81340000
H       -3.06350000      -0.59620000       1.11140000
H       -0.87890000      -0.41180000       2.82060000
