23
Properties=species:S:1:pos:R:3 gdb_121727=T pbc="F F F"
C       -0.10730000       1.61820000       0.01200000
C        0.01080000       0.09230000       0.00240000
C       -1.34940000      -0.60510000       0.01190000
C       -1.26670000      -2.12730000       0.00270000
O       -0.20730000      -2.71160000      -0.01060000
C       -2.59820000      -2.87230000       0.01130000
C       -2.45230000      -4.39240000       0.00210000
C       -3.79760000      -5.10530000       0.01090000
O       -3.54990000      -6.50220000       0.00110000
H        0.87970000       2.09060000       0.00500000
H       -0.65570000       1.98260000      -0.86420000
H       -0.63840000       1.97280000       0.90280000
H        0.57370000      -0.23800000      -0.87700000
H        0.59080000      -0.24770000       0.86700000
H       -1.93830000      -0.30300000       0.89040000
H       -1.95540000      -0.29340000      -0.85140000
H       -3.16680000      -2.53420000       0.88990000
H       -3.18300000      -2.52520000      -0.85290000
H       -1.88520000      -4.70710000      -0.87940000
H       -1.86890000      -4.71620000       0.86950000
H       -4.37260000      -4.80840000       0.90440000
H       -4.38920000      -4.79900000      -0.86860000
H       -4.39610000      -6.95870000       0.00710000
