19
Properties=species:S:1:pos:R:3 gdb_39191=T pbc="F F F"
C        0.01300000       1.49380000      -0.42340000
C        1.47430000       1.56200000       0.11090000
C        1.68630000       2.14470000       1.52700000
O        2.17370000       1.08570000       2.34470000
C        1.61100000      -0.14360000       1.86960000
C        0.18670000      -0.35660000       2.34410000
C       -0.70390000      -0.25670000       1.35620000
C       -0.06560000      -0.00880000       0.01540000
C        1.45680000       0.02250000       0.34110000
H       -0.70670000       2.17360000       0.04240000
H       -0.04370000       1.61550000      -1.50790000
H        2.20970000       1.94080000      -0.60030000
H        2.43510000       2.94140000       1.55760000
H        0.74320000       2.54720000       1.92560000
H        2.29900000      -0.93000000       2.19440000
H       -0.04750000      -0.50530000       3.39250000
H       -1.78130000      -0.31130000       1.48160000
H       -0.41050000      -0.69730000      -0.76030000
H        2.12600000      -0.58710000      -0.26380000
