18
Properties=species:S:1:pos:R:3 gdb_46070=T pbc="F F F"
O       -0.31230000       0.03240000      -0.13420000
C       -0.20200000       1.22430000      -0.06170000
N       -1.11370000       2.13660000       0.42210000
C       -0.75790000       3.50480000       0.10200000
C        0.76000000       3.29870000      -0.14020000
O        0.91170000       1.91100000      -0.46000000
C       -1.47830000       4.10490000      -1.09840000
C       -1.81120000       3.29460000      -2.32460000
C       -2.91530000       3.79000000      -1.42290000
H       -2.05800000       1.82950000       0.58230000
H       -0.91520000       4.15650000       0.96930000
H        1.13680000       3.89130000      -0.97610000
H        1.34640000       3.52190000       0.75790000
H       -1.17460000       5.13390000      -1.27670000
H       -1.68540000       3.76120000      -3.29490000
H       -1.59810000       2.23150000      -2.31230000
H       -3.43620000       3.05210000      -0.82110000
H       -3.55000000       4.59850000      -1.76720000
