16
Properties=species:S:1:pos:R:3 gdb_125597=T pbc="F F F"
C       -0.03570000       1.53800000      -0.03060000
C       -0.01000000       0.03670000      -0.01170000
N       -0.03400000      -0.58140000      -1.15930000
N       -0.01050000      -1.91140000      -1.11860000
C        0.03720000      -2.72810000       0.02190000
O        0.05420000      -3.93250000      -0.08870000
N        0.06200000      -2.03480000       1.23070000
C        0.03990000      -0.73460000       1.21920000
C        0.06770000      -0.02160000       2.54270000
H        0.85310000       1.96210000       0.45020000
H       -0.07250000       1.88620000      -1.06390000
H       -0.90780000       1.93260000       0.50290000
H       -0.02960000      -2.37840000      -2.01560000
H        0.10450000      -0.75390000       3.34880000
H        0.93860000       0.64020000       2.61150000
H       -0.81960000       0.61010000       2.66450000
