11
Properties=species:S:1:pos:R:3 gdb_21973=T pbc="F F F"
O       -0.07580000      -0.00340000       0.00380000
N       -0.04660000       1.21530000       0.00700000
O        0.96880000       1.91060000       0.00220000
C       -1.30140000       1.93160000       0.01730000
C       -1.42310000       3.29870000       0.02170000
N       -2.77390000       3.50590000       0.03130000
C       -3.38340000       2.27750000       0.03220000
N       -2.50910000       1.30270000       0.02370000
H       -0.69370000       4.08850000       0.01890000
H       -3.23300000       4.40270000       0.03670000
H       -4.45700000       2.16680000       0.03910000
