14
Properties=species:S:1:pos:R:3 gdb_45356=T pbc="F F F"
O        0.07300000       0.09520000      -0.62880000
C        0.07040000       1.17160000      -0.13680000
O       -0.95260000       1.78710000       0.55340000
C       -0.18730000       3.02970000       0.68740000
C        0.20240000       3.32160000       2.13870000
N        1.46750000       2.62660000       2.28770000
C        2.05150000       2.15790000       1.13970000
O        3.14660000       1.66260000       1.03740000
C        1.02390000       2.36810000       0.01420000
H       -0.70170000       3.84590000       0.18270000
H        0.30690000       4.40190000       2.30360000
H       -0.56360000       2.94050000       2.82260000
H        1.97720000       2.59010000       3.15650000
H        1.46940000       2.76020000      -0.89700000
