15
Properties=species:S:1:pos:R:3 gdb_17052=T pbc="F F F"
O        0.05410000       1.41980000      -0.12450000
C        0.05180000       0.02710000       0.16010000
C       -1.35860000      -0.54660000       0.11180000
C       -2.00570000      -0.82870000      -1.28430000
N       -1.03580000      -2.00270000      -1.40150000
C       -1.53210000      -2.09650000       0.04340000
C       -2.93450000      -1.82800000      -0.55410000
O       -4.03890000      -2.27100000      -0.58330000
H       -0.09760000       1.52610000      -1.06860000
H        0.71800000      -0.53000000      -0.50630000
H        0.43800000      -0.06690000       1.18080000
H       -2.01200000      -0.03190000       0.82040000
H       -2.19190000      -0.14670000      -2.11260000
H       -1.43300000      -2.75120000      -1.97580000
H       -1.16980000      -2.85990000       0.72930000
