17
Properties=species:S:1:pos:R:3 gdb_54848=T pbc="F F F"
C        0.13740000       1.37460000      -0.31140000
C        0.21640000      -0.14330000      -0.30040000
O        1.27990000      -0.72080000      -0.38860000
C       -1.09290000      -0.84180000      -0.17480000
C       -1.42250000      -2.18430000      -0.86860000
O       -0.38020000      -2.95240000      -1.37340000
C        0.38800000      -3.44420000      -0.27700000
O       -0.17390000      -2.92530000       0.92700000
C       -1.29080000      -2.16690000       0.59780000
H        1.13980000       1.79360000      -0.40510000
H       -0.48640000       1.71800000      -1.14480000
H       -0.33130000       1.73900000       0.61000000
H       -1.95730000      -0.18680000      -0.10470000
H       -2.34770000      -2.27550000      -1.42500000
H        0.34040000      -4.54240000      -0.25980000
H        1.41290000      -3.08210000      -0.37320000
H       -2.10210000      -2.24290000       1.31190000
