23
Properties=species:S:1:pos:R:3 gdb_118502=T pbc="F F F"
C        0.87940000       1.54150000       0.04210000
O        0.25170000       0.28430000      -0.09010000
C        0.67510000      -0.48260000      -1.21830000
C        0.99680000      -1.90270000      -0.74000000
C        2.16270000      -1.96440000       0.24710000
O        2.46510000      -3.29050000       0.65670000
C       -0.39320000      -0.49260000      -2.30230000
C       -1.84840000      -0.64580000      -1.94200000
C       -1.34200000       0.65940000      -2.50560000
H        1.96430000       1.44080000       0.19660000
H        0.71520000       2.18590000      -0.83320000
H        0.44510000       2.02670000       0.92050000
H        1.59280000      -0.03420000      -1.63200000
H        0.09480000      -2.31680000      -0.27020000
H        1.22640000      -2.53500000      -1.60540000
H        3.07750000      -1.59040000      -0.22750000
H        1.95050000      -1.31520000       1.10830000
H        1.70250000      -3.62670000       1.13810000
H       -0.06920000      -1.00440000      -3.20510000
H       -2.47360000      -1.27730000      -2.56320000
H       -2.09720000      -0.65380000      -0.88680000
H       -1.28460000       1.49610000      -1.82010000
H       -1.60910000       0.92710000      -3.52200000
