19
Properties=species:S:1:pos:R:3 gdb_53417=T pbc="F F F"
C        0.04130000       1.44190000       0.23700000
C        0.00970000      -0.00430000       0.07450000
C       -0.00390000      -1.20170000      -0.05410000
C       -0.03340000      -2.66000000      -0.21890000
O        0.78430000      -3.32180000       0.75190000
C       -0.02410000      -4.14140000       1.59470000
C       -1.40080000      -4.07600000       1.00320000
C       -1.42820000      -3.24300000      -0.03160000
C       -2.56430000      -2.85530000      -0.91800000
H        0.94900000       1.75740000       0.76340000
H        0.02820000       1.95160000      -0.73270000
H       -0.81820000       1.80070000       0.81380000
H        0.36140000      -2.90450000      -1.21900000
H        0.38880000      -5.16130000       1.60510000
H        0.00490000      -3.76910000       2.63180000
H       -2.24080000      -4.63710000       1.39470000
H       -3.49300000      -3.34490000      -0.61500000
H       -2.71880000      -1.77040000      -0.89710000
H       -2.36110000      -3.12460000      -1.96230000
