9
Properties=species:S:1:pos:R:3 gdb_4221=T pbc="F F F"
F       -0.00300000       0.08480000       0.00380000
C       -0.02890000       1.39770000       0.01060000
N       -1.23000000       1.95520000       0.02960000
C       -1.19990000       3.28180000       0.03610000
C        0.01640000       3.96530000       0.02340000
N        1.17630000       3.31330000       0.00460000
N        1.16000000       1.98450000      -0.00200000
H       -2.15300000       3.80420000       0.05150000
H        0.07330000       5.04780000       0.02830000
