13
Properties=species:S:1:pos:R:3 gdb_20531=T pbc="F F F"
C       -0.02120000       1.47680000      -0.07640000
C       -0.02510000      -0.02540000       0.04370000
O       -0.04450000      -0.64860000       1.06520000
N       -0.00220000      -0.71630000      -1.21830000
N        0.02040000      -0.06420000      -2.39360000
C        0.03620000      -1.03690000      -3.28870000
C        0.02240000      -2.27720000      -2.60950000
N       -0.00170000      -2.05360000      -1.30690000
H        0.86650000       1.81880000      -0.61410000
H       -0.88760000       1.82070000      -0.64680000
H       -0.03960000       1.89230000       0.93040000
H        0.05610000      -0.82280000      -4.34580000
H        0.02870000      -3.28240000      -3.00120000
