20
Properties=species:S:1:pos:R:3 gdb_121449=T pbc="F F F"
C       -0.55420000       1.48810000      -0.14030000
C        0.06360000       0.11280000      -0.03460000
C        0.92450000      -0.40630000      -1.21010000
C        2.04430000      -0.37730000      -0.19540000
O        1.25650000       0.11090000       0.82870000
N        3.25850000      -0.67810000      -0.20030000
C        4.04720000      -0.53770000       1.02250000
C        5.12790000      -1.62040000       1.01260000
O        5.89410000      -1.56400000      -0.17170000
H        0.17080000       2.21290000      -0.52300000
H       -1.41360000       1.46310000      -0.81860000
H       -0.90170000       1.83040000       0.83880000
H       -0.65280000      -0.62030000       0.34860000
H        0.67570000      -1.39530000      -1.59810000
H        1.04500000       0.29160000      -2.04160000
H        4.53400000       0.44630000       1.01120000
H        3.43680000      -0.60210000       1.93290000
H        5.81360000      -1.47570000       1.85470000
H        4.65020000      -2.60700000       1.13640000
H        5.24540000      -1.46330000      -0.88150000
