21
Properties=species:S:1:pos:R:3 gdb_86221=T pbc="F F F"
C       -0.02590000       1.52800000       0.06120000
C       -0.04260000       0.00850000      -0.08060000
C        0.80480000      -0.52990000      -1.24790000
C        1.27730000      -1.90660000      -0.76030000
C        2.46160000      -2.50770000      -1.50880000
C        1.55930000      -1.60030000       0.73300000
N        0.48800000      -0.68070000       1.12110000
C        1.57420000      -2.81080000       1.56850000
N        1.61340000      -3.76790000       2.21520000
H        0.99860000       1.90020000       0.17910000
H       -0.46060000       2.00450000      -0.82330000
H       -0.61070000       1.84810000       0.93020000
H       -1.08580000      -0.30840000      -0.22300000
H        0.24730000      -0.58170000      -2.18700000
H        1.67540000       0.11930000      -1.41370000
H        0.43210000      -2.60430000      -0.79650000
H        3.32030000      -1.82650000      -1.50190000
H        2.77560000      -3.45430000      -1.05790000
H        2.20120000      -2.70610000      -2.55290000
H        2.56500000      -1.15280000       0.80850000
H        0.78180000      -0.03530000       1.84200000
