19
Properties=species:S:1:pos:R:3 gdb_103501=T pbc="F F F"
O       -0.14240000       1.46000000       0.15730000
C        0.04750000       0.05770000      -0.04960000
C       -1.33010000      -0.54950000       0.01350000
O       -2.25080000       0.09960000      -0.81770000
C       -1.60530000      -2.02810000       0.13120000
C       -0.50800000      -2.98490000       0.60160000
C       -0.48630000      -2.74050000       2.12590000
O       -0.96090000      -1.40370000       2.32110000
C       -1.88760000      -1.11490000       1.30430000
H        0.65610000       1.91930000      -0.11590000
H        0.49160000      -0.13170000      -1.03800000
H        0.69680000      -0.36840000       0.72310000
H       -2.09200000       1.04300000      -0.67740000
H       -2.41360000      -2.40010000      -0.48680000
H       -0.76080000      -4.02080000       0.36070000
H        0.46420000      -2.77240000       0.14580000
H       -1.14760000      -3.45380000       2.64030000
H        0.50930000      -2.80760000       2.57320000
H       -2.88790000      -0.84660000       1.62980000
