19
Properties=species:S:1:pos:R:3 gdb_93532=T pbc="F F F"
C       -0.21630000       1.46390000      -0.03950000
C        0.07910000      -0.02690000       0.00620000
O        0.78020000      -0.37500000      -1.18020000
C        0.89270000      -1.77430000      -1.31490000
C        1.25690000      -2.54050000      -0.04600000
O        1.55460000      -3.70320000      -0.08180000
O        1.17810000      -1.89400000       1.13510000
C        0.91970000      -0.46630000       1.20810000
C        2.25260000       0.25930000       1.35490000
H        0.70390000       2.04010000      -0.16180000
H       -0.86990000       1.68380000      -0.88700000
H       -0.71650000       1.78890000       0.87760000
H       -0.87250000      -0.58510000       0.04220000
H       -0.04970000      -2.21500000      -1.68060000
H        1.66270000      -1.97980000      -2.06160000
H        0.32740000      -0.35210000       2.12240000
H        2.80540000       0.24200000       0.41190000
H        2.09890000       1.30060000       1.65080000
H        2.85220000      -0.23110000       2.12510000
