14
Properties=species:S:1:pos:R:3 gdb_127273=T pbc="F F F"
C       -0.00850000       1.46140000       0.00950000
N       -0.05040000       0.00350000       0.00130000
C       -1.24920000      -0.66720000       0.00460000
C       -1.21070000      -2.02070000      -0.00300000
O       -2.27580000      -2.81890000      -0.00110000
C        0.08710000      -2.68320000      -0.01420000
O        0.12670000      -3.91010000      -0.02100000
N        1.22640000      -1.87920000      -0.01640000
N        1.14100000      -0.59860000      -0.00890000
H        1.04040000       1.75280000       0.00350000
H       -0.51060000       1.85980000      -0.87690000
H       -0.49750000       1.84960000       0.90760000
H       -2.15390000      -0.07340000       0.01310000
H       -1.87920000      -3.71720000      -0.00830000
