14
Properties=species:S:1:pos:R:3 gdb_11172=T pbc="F F F"
O        0.02350000      -0.02650000       0.10980000
C       -0.02230000       1.18020000       0.12350000
C       -1.28070000       2.05810000       0.11110000
C       -0.75570000       3.46440000       0.48010000
C        0.72640000       3.43850000       0.00300000
N        1.05280000       2.03390000       0.13820000
C       -1.52000000       4.56910000      -0.08610000
N       -2.12380000       5.44280000      -0.54160000
H       -1.70470000       2.03910000      -0.89800000
H       -2.03510000       1.67700000       0.79940000
H       -0.76220000       3.56930000       1.57000000
H        0.80750000       3.79240000      -1.03350000
H        1.36190000       4.06930000       0.63010000
H        1.98350000       1.67210000       0.00060000
