13
Properties=species:S:1:pos:R:3 gdb_19394=T pbc="F F F"
O       -0.03840000       0.03260000      -0.07470000
C       -0.01970000       1.21520000       0.03100000
N       -1.12160000       2.17670000      -0.04410000
C       -1.02900000       3.00810000       1.19490000
C       -0.09340000       3.30670000       0.10140000
C        1.04820000       2.30890000       0.12670000
C        2.39590000       2.33590000       0.70300000
O        2.17610000       2.35290000      -0.71270000
H       -1.89930000       3.64190000       1.32920000
H       -0.66060000       2.54310000       2.10630000
H       -0.14600000       4.17790000      -0.53820000
H        2.76940000       3.26540000       1.12920000
H        2.82750000       1.41710000       1.09490000
