20
Properties=species:S:1:pos:R:3 gdb_75911=T pbc="F F F"
C        0.54410000       1.66870000      -0.21580000
C        0.07950000       0.23740000       0.09770000
C        0.44000000      -0.67950000      -1.08370000
O       -0.02800000      -0.63990000      -2.20090000
N        1.42350000      -1.53000000      -0.65430000
C        1.90360000      -1.28410000       0.69360000
C        0.77680000      -0.42980000       1.28310000
C        0.91840000       0.20590000       2.63520000
C       -0.02110000      -0.96210000       2.44670000
H        1.63260000       1.71950000      -0.32740000
H        0.09130000       2.00820000      -1.15110000
H        0.25620000       2.35900000       0.58230000
H       -1.00830000       0.23580000       0.21460000
H        1.90320000      -2.11920000      -1.31640000
H        2.04550000      -2.21820000       1.24850000
H        2.86500000      -0.74790000       0.69010000
H        1.83940000       0.03750000       3.18510000
H        0.48860000       1.19010000       2.78840000
H       -1.08830000      -0.76600000       2.46300000
H        0.26240000      -1.92050000       2.87000000
