16
Properties=species:S:1:pos:R:3 gdb_14616=T pbc="F F F"
O       -0.24830000       0.21910000       0.56140000
C        0.03620000       1.11650000      -0.18520000
C        1.35510000       1.86880000      -0.13230000
O        1.34380000       2.84500000      -1.14120000
C        2.52550000       3.61610000      -1.19620000
C        2.36480000       4.62770000      -2.33540000
C        3.53710000       5.47960000      -2.47930000
C        4.51770000       6.16750000      -2.57420000
H       -0.64830000       1.47530000      -0.98520000
H        1.47110000       2.31110000       0.87170000
H        2.18000000       1.14770000      -0.26220000
H        2.69360000       4.14130000      -0.24320000
H        3.40170000       2.97490000      -1.37880000
H        2.17390000       4.08020000      -3.26600000
H        1.47270000       5.23500000      -2.14180000
H        5.37760000       6.78300000      -2.67010000
