22
Properties=species:S:1:pos:R:3 gdb_7270=T pbc="F F F"
C       -0.11230000       1.53370000      -0.04140000
C        0.02540000       0.00230000      -0.02610000
C        0.72980000      -0.45150000      -1.31600000
C        0.73830000      -0.50360000       1.25470000
C        0.08860000       0.02630000       2.54150000
C        0.79050000      -2.05540000       1.29430000
C        1.55710000      -2.58990000       2.41380000
C        2.20370000      -3.01840000       3.33280000
H        0.86970000       2.01640000       0.03610000
H       -0.56890000       1.86670000      -0.97910000
H       -0.73390000       1.90500000       0.77650000
H       -0.98970000      -0.42400000      -0.02570000
H        1.77080000      -0.10660000      -1.33460000
H        0.73540000      -1.53740000      -1.44040000
H        0.22880000      -0.03040000      -2.19350000
H        1.77710000      -0.14560000       1.22220000
H        0.55400000      -0.42830000       3.41990000
H        0.19080000       1.10970000       2.63460000
H       -0.98160000      -0.21440000       2.56720000
H       -0.23660000      -2.44480000       1.33710000
H        1.22450000      -2.44240000       0.36700000
H        2.77000000      -3.40630000       4.14260000
