18
Properties=species:S:1:pos:R:3 gdb_28098=T pbc="F F F"
C       -0.02080000       1.46330000       0.03000000
C        0.00020000      -0.03020000      -0.01890000
C       -0.03150000      -0.81650000      -1.12060000
C        0.00740000      -2.20000000      -0.68670000
C        0.06370000      -2.29160000       0.68980000
C        0.06400000      -0.89330000       1.24330000
C        0.09860000      -3.66600000       1.02860000
C        0.06160000      -4.36630000      -0.16420000
N        0.00600000      -3.46200000      -1.20990000
H        0.87400000       1.86700000       0.52240000
H       -0.07040000       1.89240000      -0.97500000
H       -0.88220000       1.83990000       0.59760000
H       -0.07780000      -0.46470000      -2.14410000
H        0.96190000      -0.65800000       1.83110000
H       -0.79120000      -0.68540000       1.90090000
H        0.14470000      -4.11410000       2.00980000
H        0.07030000      -5.42710000      -0.35640000
H       -0.02900000      -3.70910000      -2.18290000
