17
Properties=species:S:1:pos:R:3 gdb_65023=T pbc="F F F"
O       -0.13700000       1.33960000      -0.44200000
C       -0.01550000       0.00000000      -0.07500000
C       -0.13020000      -0.34830000       1.38800000
C       -1.27780000      -0.62580000       0.43310000
C        0.97420000      -0.76050000      -0.97110000
C        2.38770000      -0.20060000      -0.82880000
O        2.63490000       0.89310000      -0.38170000
C        0.97390000      -2.26090000      -0.75500000
O        1.83820000      -2.84260000      -0.14750000
H        0.73520000       1.73210000      -0.28800000
H        0.43460000      -1.18980000       1.77480000
H       -0.23920000       0.48470000       2.07190000
H       -2.13500000       0.03560000       0.47870000
H       -1.51630000      -1.65410000       0.18610000
H        0.66410000      -0.57540000      -2.01320000
H        3.19820000      -0.86140000      -1.19320000
H        0.11040000      -2.80720000      -1.19010000
