19
Properties=species:S:1:pos:R:3 gdb_41106=T pbc="F F F"
C       -0.00970000       1.53380000       0.30450000
C        1.51750000       1.49260000      -0.10750000
C        1.14800000       0.29610000      -1.02200000
C        0.39190000       0.75140000      -2.29170000
C       -0.74760000       0.06610000      -2.35440000
C       -0.76700000      -0.88270000      -1.14440000
C        0.44700000      -1.85440000      -1.33390000
C        1.58960000      -1.15500000      -1.25760000
C       -0.05620000       0.02690000      -0.09510000
H       -0.23960000       1.76630000       1.34640000
H       -0.57890000       2.19110000      -0.35370000
H        1.93230000       2.38620000      -0.58210000
H        2.15320000       1.20460000       0.73440000
H        0.77990000       1.48170000      -2.99070000
H       -1.50870000       0.09220000      -3.12340000
H       -1.71800000      -1.36520000      -0.91630000
H        0.33720000      -2.90810000      -1.55600000
H        2.59870000      -1.52150000      -1.39330000
H        0.24150000      -0.56280000       0.77570000
