12
Properties=species:S:1:pos:R:3 gdb_132204=T pbc="F F F"
N        0.13460000       1.33830000       0.16610000
C       -0.04170000      -0.00940000       0.05670000
C       -1.19240000      -0.71250000       0.02120000
C       -1.17150000      -2.16790000      -0.02100000
O       -2.15590000      -2.86810000      -0.04800000
N        0.13680000      -2.76090000      -0.03650000
C        1.12800000      -1.99530000      -0.01040000
F        2.36200000      -2.43230000      -0.02810000
O        1.17380000      -0.64550000       0.03690000
H        1.02170000       1.69960000      -0.14980000
H       -0.66420000       1.91370000      -0.04680000
H       -2.14890000      -0.20830000       0.02980000
