19
Properties=species:S:1:pos:R:3 gdb_40177=T pbc="F F F"
C       -0.10190000       1.50580000      -0.01590000
C        1.25860000       0.83360000      -0.02580000
C        0.01710000       0.00380000       0.02670000
C       -0.34990000      -0.77890000       1.27310000
C       -1.76530000      -1.30540000       1.17630000
O       -2.77280000      -0.35670000       0.81910000
C       -2.41700000      -1.36200000      -0.14090000
C       -1.66330000      -0.88440000      -1.37020000
O       -0.26990000      -0.70500000      -1.15170000
H       -0.42570000       2.02610000       0.87830000
H       -0.44040000       1.94790000      -0.94600000
H        1.80350000       0.82720000      -0.96270000
H        1.87820000       0.88990000       0.86290000
H        0.32890000      -1.63480000       1.38270000
H       -0.23940000      -0.15690000       2.16850000
H       -2.06830000      -2.01630000       1.94570000
H       -3.20050000      -2.09820000      -0.31940000
H       -1.74280000      -1.63040000      -2.16670000
H       -2.12460000       0.04970000      -1.72640000
