14
Properties=species:S:1:pos:R:3 gdb_43970=T pbc="F F F"
O       -0.01270000       0.06250000      -0.33000000
C        0.00240000       1.20710000       0.01470000
C       -1.14350000       2.25930000       0.20300000
C       -0.06460000       3.32670000      -0.04320000
C        0.95660000       3.34830000       1.03670000
C        1.08470000       2.26080000      -0.00540000
O        1.89320000       2.54700000      -1.12730000
C        1.24540000       3.58970000      -1.75170000
N        0.16760000       4.06250000      -1.25740000
H       -1.86410000       2.15520000      -0.61130000
H       -1.67030000       2.30630000       1.15900000
H        1.72590000       4.10940000       0.97280000
H        0.66680000       3.07180000       2.04450000
H        1.73930000       3.94280000      -2.64920000
