23
Properties=species:S:1:pos:R:3 gdb_59774=T pbc="F F F"
C       -0.04650000       1.52840000      -0.05520000
C       -0.00360000      -0.00420000       0.02430000
C        0.81790000      -0.45410000       1.24030000
C       -1.43470000      -0.58550000       0.04410000
O       -2.11250000      -0.04160000      -1.08210000
C       -3.35790000      -0.65810000      -1.35280000
C       -3.16450000      -2.11470000      -1.77640000
C       -2.23850000      -2.79130000      -0.80180000
C       -1.47870000      -2.09440000       0.04080000
H        0.96650000       1.93720000      -0.12840000
H       -0.62180000       1.86200000      -0.91980000
H       -0.51090000       1.95130000       0.84440000
H        0.47690000      -0.38590000      -0.88620000
H        0.32220000      -0.17380000       2.17770000
H        0.98850000      -1.53380000       1.25920000
H        1.79920000       0.03060000       1.23240000
H       -1.92610000      -0.22170000       0.96990000
H       -4.00780000      -0.61430000      -0.46310000
H       -3.82760000      -0.06500000      -2.14290000
H       -4.13400000      -2.62840000      -1.80670000
H       -2.75700000      -2.16350000      -2.79550000
H       -2.21900000      -3.87800000      -0.78490000
H       -0.86330000      -2.60390000       0.77550000
