16
Properties=species:S:1:pos:R:3 gdb_62291=T pbc="F F F"
O       -0.03930000       1.40200000      -0.05220000
C       -0.01470000      -0.00340000      -0.07810000
C        0.82850000      -0.52890000       1.00900000
N        1.52910000      -0.89650000       1.85200000
C       -1.37210000      -0.68710000      -0.11960000
C       -1.79920000      -0.76300000      -1.58920000
C       -0.70370000      -0.10070000      -2.42300000
C        0.28960000      -0.75320000      -1.42840000
C       -0.83930000      -1.77960000      -1.02570000
H        0.86080000       1.73250000       0.05000000
H       -2.07740000      -0.77350000       0.69510000
H       -2.84390000      -0.90180000      -1.83490000
H       -0.62470000      -0.56230000      -3.41030000
H       -0.68590000       0.98930000      -2.50490000
H        1.31690000      -0.98400000      -1.69870000
H       -0.86480000      -2.85310000      -0.92540000
