10
Properties=species:S:1:pos:R:3 gdb_805=T pbc="F F F"
O       -0.06740000       1.35300000       0.01000000
N        0.07130000      -0.01690000       0.00140000
C       -1.07620000      -0.62030000       0.00910000
C       -1.06220000      -2.04670000       0.00130000
C       -1.09960000      -3.24870000      -0.00480000
C       -2.33990000       0.04230000       0.02470000
C       -3.41600000       0.57960000       0.03780000
H        0.84830000       1.65610000       0.00290000
H       -1.12170000      -4.31060000      -0.01020000
H       -4.36480000       1.05730000       0.04940000
