17
Properties=species:S:1:pos:R:3 gdb_75757=T pbc="F F F"
C        0.24130000       1.38160000      -0.26970000
C       -0.06440000      -0.09730000      -0.05340000
N        0.67760000      -1.03230000      -0.92320000
C        1.58530000      -1.40420000       0.06030000
N        2.71680000      -1.96050000       0.12700000
C        0.74090000      -0.76890000       1.16490000
N        1.43430000       0.08550000       2.08320000
C       -1.50900000      -0.34870000      -0.04770000
N       -2.64870000      -0.54050000      -0.02010000
H        1.31870000       1.54800000      -0.20870000
H       -0.12490000       1.71360000      -1.24580000
H       -0.23730000       1.98490000       0.50530000
H        0.86240000      -0.89780000      -1.90790000
H        3.08090000      -2.22450000      -0.78940000
H        0.09800000      -1.50600000       1.65460000
H        1.14070000      -0.06310000       3.03930000
H        2.43260000      -0.08390000       2.02650000
