17
Properties=species:S:1:pos:R:3 gdb_89671=T pbc="F F F"
C       -0.07830000       1.52880000      -0.04690000
C        0.12180000       0.03130000       0.02370000
O        1.22880000      -0.45520000      -0.80010000
C        1.75540000      -1.20880000       0.28970000
C        2.17970000      -0.28710000       1.40220000
C        0.71900000      -0.63830000       1.27440000
N        0.04410000      -1.27850000       2.33380000
C        2.23830000      -2.53000000       0.06930000
N        2.62250000      -3.60900000      -0.09800000
H        0.81190000       2.06930000       0.28510000
H       -0.30180000       1.83410000      -1.07360000
H       -0.92360000       1.82320000       0.58450000
H       -0.79340000      -0.49710000      -0.27970000
H        2.66270000      -0.77430000       2.24240000
H        2.56460000       0.69130000       1.13190000
H       -0.14260000      -0.65070000       3.10780000
H       -0.82580000      -1.70750000       2.03880000
