16
Properties=species:S:1:pos:R:3 gdb_32257=T pbc="F F F"
C       -0.04160000       1.37650000       0.10730000
O       -0.00820000      -0.03620000      -0.00650000
C        0.61310000      -0.56400000      -1.09920000
C        1.22380000       0.12300000      -2.12730000
N        1.81790000      -0.50310000      -3.16410000
C        1.78350000      -1.82580000      -3.12910000
N        1.22940000      -2.60120000      -2.18980000
C        0.63520000      -1.98010000      -1.17400000
N        0.01600000      -2.72510000      -0.21440000
H        0.97030000       1.79790000       0.15810000
H       -0.57700000       1.83180000      -0.73520000
H       -0.57250000       1.59670000       1.03440000
H        1.25050000       1.20830000      -2.14130000
H        2.26120000      -2.34960000      -3.95360000
H        0.24320000      -3.70600000      -0.19680000
H       -0.20420000      -2.27570000       0.65810000
