23
Properties=species:S:1:pos:R:3 gdb_114832=T pbc="F F F"
C       -0.09630000       1.63610000       0.22900000
C        0.03230000       0.11230000       0.13280000
C       -1.32410000      -0.57310000       0.00630000
O       -1.98430000      -0.15480000      -1.21460000
C       -2.43900000      -1.35210000      -1.86590000
C       -1.21690000      -2.04100000      -2.50450000
C       -0.47790000      -2.60830000      -1.24780000
C       -1.36610000      -2.11390000      -0.08070000
C       -2.77620000      -2.27980000      -0.69020000
H        0.88580000       2.11320000       0.30110000
H       -0.60710000       2.03080000      -0.65330000
H       -0.67640000       1.92950000       1.11130000
H        0.65650000      -0.14580000      -0.72910000
H        0.53810000      -0.27960000       1.02520000
H       -1.94710000      -0.25030000       0.85740000
H       -3.24280000      -1.08340000      -2.55270000
H       -1.51490000      -2.83290000      -3.19910000
H       -0.61940000      -1.31280000      -3.05770000
H       -0.45650000      -3.70220000      -1.26020000
H        0.55750000      -2.27000000      -1.17260000
H       -1.18120000      -2.60580000       0.87570000
H       -3.58040000      -1.89150000      -0.06030000
H       -3.00420000      -3.30620000      -0.99080000
