18
Properties=species:S:1:pos:R:3 gdb_8670=T pbc="F F F"
C        0.01020000       1.59260000      -0.01370000
C        0.00320000       0.05160000      -0.01320000
C        0.70730000      -0.45510000       1.27120000
O        0.54650000      -1.84800000       1.47490000
C       -1.46280000      -0.48270000      -0.04040000
O       -2.14080000      -0.25350000       1.17860000
C        0.70580000      -0.48740000      -1.17830000
C        1.27700000      -0.98270000      -2.11500000
H        1.01960000       1.98620000       0.13900000
H       -0.36340000       1.98080000      -0.96480000
H       -0.63700000       1.95590000       0.78950000
H        1.76740000      -0.16770000       1.24040000
H        0.24840000       0.03250000       2.13540000
H        0.93690000      -2.29530000       0.71440000
H       -2.01870000       0.04570000      -0.82130000
H       -1.45270000      -1.54780000      -0.29660000
H       -1.84560000      -0.93670000       1.79070000
H        1.77920000      -1.39450000      -2.95540000
