16
Properties=species:S:1:pos:R:3 gdb_51946=T pbc="F F F"
N        0.34270000      -0.15170000       1.27090000
C       -0.51200000      -0.40160000       0.38080000
O       -0.38770000      -1.51990000      -0.37310000
C       -1.48090000      -1.85300000      -1.21690000
C       -2.49860000      -2.78570000      -0.55040000
O       -3.63450000      -2.83780000      -0.95370000
C       -2.00310000      -3.62420000       0.59840000
C       -2.86680000      -3.75090000       1.79530000
O       -2.75690000      -4.80490000       0.86020000
H        0.12920000       0.73450000       1.72370000
H       -1.38350000       0.21020000       0.10950000
H       -2.00920000      -0.96470000      -1.58120000
H       -1.05900000      -2.37310000      -2.08420000
H       -0.92690000      -3.71240000       0.71820000
H       -2.39540000      -3.91410000       2.76300000
H       -3.82400000      -3.23270000       1.79890000
