11
Properties=species:S:1:pos:R:3 gdb_130756=T pbc="F F F"
O        0.05350000      -0.05500000       0.00210000
C        0.05700000       1.13500000       0.00890000
O       -1.20050000       1.77780000       0.02850000
N       -1.36480000       3.13280000       0.03720000
C       -0.27660000       3.84540000       0.02620000
C        1.03300000       3.21120000       0.00590000
N        1.19850000       1.93900000      -0.00240000
C       -0.39010000       5.26090000       0.03490000
C       -0.41660000       6.46310000       0.04130000
H        1.91590000       3.85000000      -0.00240000
H       -0.46060000       7.52520000       0.04750000
