17
Properties=species:S:1:pos:R:3 gdb_92852=T pbc="F F F"
O       -0.01290000       1.43010000      -0.11640000
C        0.01080000       0.01420000      -0.00370000
C        0.53690000      -0.52890000       1.38770000
N       -0.48410000      -1.40970000       1.98790000
C       -1.48730000      -1.37060000       1.19150000
N       -2.72640000      -1.95700000       1.19440000
C       -3.53760000      -1.39280000       0.11240000
C       -2.54890000      -0.52380000      -0.64770000
C       -1.38150000      -0.53950000      -0.00540000
H        0.89870000       1.73880000      -0.09600000
H        0.60100000      -0.42110000      -0.82480000
H        1.48260000      -1.07370000       1.27780000
H        0.72970000       0.32930000       2.04560000
H       -3.14600000      -2.30550000       2.03980000
H       -3.96840000      -2.18010000      -0.52320000
H       -4.37990000      -0.79600000       0.49600000
H       -2.82130000       0.00580000      -1.55090000
