15
Properties=species:S:1:pos:R:3 gdb_43748=T pbc="F F F"
O        0.25470000      -0.00090000       0.01830000
C        0.10070000       1.18140000       0.06780000
C       -1.14850000       2.11360000       0.00560000
C       -0.14840000       3.27710000      -0.12440000
C       -0.30690000       4.57170000      -0.87560000
C       -1.38530000       5.39770000      -0.33890000
C       -2.28260000       6.05820000       0.10910000
O        0.62030000       3.25360000       1.07050000
C        1.03850000       2.38450000      -0.01030000
H       -1.73660000       1.90130000      -0.89240000
H       -1.79910000       2.15320000       0.88050000
H        0.64400000       5.11520000      -0.83460000
H       -0.50410000       4.34860000      -1.93210000
H       -3.06930000       6.65130000       0.50570000
H        2.05800000       2.48100000      -0.36540000
