21
Properties=species:S:1:pos:R:3 gdb_112936=T pbc="F F F"
C        0.06460000       1.39810000      -0.30440000
C        0.11440000      -0.07480000       0.05980000
O        1.16210000      -0.65700000       0.23340000
C       -1.22040000      -0.78730000       0.15050000
C       -1.74360000      -1.39610000      -1.19910000
C       -2.14340000      -2.68020000      -0.42190000
C       -1.83800000      -4.02300000      -1.06520000
O       -2.14460000      -5.11800000      -0.21570000
C       -1.24460000      -2.21030000       0.75840000
H        1.06980000       1.77240000      -0.50130000
H       -0.57560000       1.56080000      -1.17860000
H       -0.37930000       1.96600000       0.52210000
H       -1.97510000      -0.12520000       0.58550000
H       -2.53040000      -0.84950000      -1.72280000
H       -0.91960000      -1.58500000      -1.89530000
H       -3.20030000      -2.65200000      -0.13810000
H       -2.45100000      -4.16150000      -1.96350000
H       -0.78240000      -4.04660000      -1.38400000
H       -1.57100000      -5.05720000       0.55520000
H       -0.24000000      -2.64380000       0.71900000
H       -1.63980000      -2.30950000       1.77150000
