21
Properties=species:S:1:pos:R:3 gdb_76473=T pbc="F F F"
C        0.02920000       0.73570000      -2.20490000
C        0.07680000      -0.34630000      -1.14770000
C        1.30060000      -0.60770000      -0.28600000
C        2.58040000       0.19080000      -0.40840000
C        0.05330000      -0.02300000       0.32320000
C       -0.09660000       1.37440000       0.95990000
C       -0.99020000       0.71550000       2.02940000
O       -1.57490000       1.13140000       2.98600000
C       -0.84040000      -0.67960000       1.39320000
H        0.55270000       1.64340000      -1.89280000
H        0.48770000       0.39530000      -3.13990000
H       -1.00600000       1.01680000      -2.42910000
H       -0.47880000      -1.24170000      -1.42110000
H        1.46750000      -1.65740000      -0.05070000
H        2.39110000       1.25080000      -0.59830000
H        3.17110000       0.12460000       0.51220000
H        3.20390000      -0.18480000      -1.22730000
H        0.81460000       1.82570000       1.36730000
H       -0.61500000       2.13090000       0.36090000
H       -1.78590000      -1.10620000       1.04010000
H       -0.35470000      -1.41200000       2.04780000
