19
Properties=species:S:1:pos:R:3 gdb_34926=T pbc="F F F"
C        0.01080000      -1.21860000       0.02690000
C        0.05810000      -0.01620000       0.03720000
C        0.08930000       1.41930000       0.05240000
C        0.50970000       2.23940000       1.25870000
C        1.63070000       1.53870000       2.04240000
C        2.48450000       1.56350000       0.75420000
C        3.93720000       1.92690000       0.67150000
C        3.46680000       0.55190000       0.24760000
C        1.36480000       2.24660000      -0.00400000
H       -0.02590000      -2.27940000       0.01040000
H       -0.72630000       1.88410000      -0.49760000
H       -0.14160000       3.01310000       1.64630000
H        2.04710000       2.16810000       2.83310000
H        1.38080000       0.55570000       2.45230000
H        4.24680000       2.62310000      -0.10190000
H        4.49510000       2.01710000       1.59840000
H        3.70360000      -0.28910000       0.89090000
H        3.45840000       0.31420000      -0.81080000
H        1.48490000       3.02160000      -0.75280000
