12
Properties=species:S:1:pos:R:3 gdb_50800=T pbc="F F F"
N       -0.23470000       1.27620000       0.40010000
C       -0.05350000       0.07740000       0.07810000
O       -1.14770000      -0.76560000       0.13580000
C       -0.96830000      -2.06520000      -0.22730000
O        0.06000000      -2.55450000      -0.60960000
C       -2.20790000      -2.79140000      -0.09180000
C       -3.20610000      -3.46420000       0.00430000
C       -4.41450000      -4.25590000       0.09190000
O       -4.74090000      -4.86920000       1.07810000
H        0.63890000       1.79490000       0.32070000
H        0.85470000      -0.42670000      -0.24990000
H       -5.02270000      -4.25180000      -0.83350000
