23
Properties=species:S:1:pos:R:3 gdb_83638=T pbc="F F F"
C       -0.58200000       1.38740000      -0.08710000
C       -0.03680000      -0.03540000      -0.07780000
C        1.15570000      -0.39920000      -1.01390000
C        2.26750000       0.65110000      -1.16180000
O        2.90520000       0.22540000       0.06540000
C        1.97480000      -0.86660000       0.22080000
C        0.78150000      -0.56540000       1.17520000
C        1.07910000       0.42510000       2.29570000
C        0.17800000      -1.85840000       1.72750000
H        0.18230000       2.13440000       0.14470000
H       -1.00280000       1.63520000      -1.06830000
H       -1.38240000       1.50170000       0.65180000
H       -0.86900000      -0.71950000      -0.27500000
H        0.93730000      -1.01770000      -1.88380000
H        2.92440000       0.48260000      -2.02530000
H        1.98160000       1.70910000      -1.13960000
H        2.48410000      -1.83020000       0.32730000
H        1.61220000       1.30280000       1.92550000
H        0.15550000       0.75450000       2.78460000
H        1.71040000      -0.04100000       3.06090000
H        0.83190000      -2.30680000       2.48430000
H       -0.79560000      -1.66730000       2.19330000
H        0.02510000      -2.60170000       0.93620000
