14
Properties=species:S:1:pos:R:3 gdb_31922=T pbc="F F F"
O       -0.18330000       1.43140000      -0.11720000
C       -0.02540000       0.02730000       0.00900000
C       -1.39500000      -0.57470000       0.00020000
N       -1.68560000      -1.86280000      -0.03550000
C       -3.04730000      -1.92910000      -0.01100000
C       -3.59560000      -0.66130000       0.03780000
N       -2.50620000       0.19430000       0.04690000
C       -4.93000000      -0.21110000       0.07070000
N       -6.02670000       0.16390000       0.09890000
H        0.67190000       1.85110000       0.00700000
H        0.55990000      -0.40250000      -0.81650000
H        0.48340000      -0.24440000       0.94610000
H       -3.57770000      -2.86850000      -0.03090000
H       -2.50980000       1.20200000       0.06320000
