20
Properties=species:S:1:pos:R:3 gdb_100339=T pbc="F F F"
C        0.11550000       1.31370000       0.11290000
O       -0.10060000      -0.05890000      -0.16460000
C       -1.43220000      -0.57740000      -0.01860000
C       -2.15750000      -0.07310000       1.22900000
C       -2.21490000      -0.23180000      -1.30170000
O       -1.51770000      -0.64150000      -2.45780000
C       -1.21840000      -2.10910000       0.03630000
C       -0.41330000      -2.53040000       1.17850000
N        0.20600000      -2.86590000       2.09450000
H        1.15360000       1.51690000      -0.15960000
H       -0.53510000       1.97470000      -0.47640000
H       -0.01720000       1.54510000       1.17620000
H       -2.35910000       0.99970000       1.17390000
H       -3.11980000      -0.58440000       1.32930000
H       -1.57110000      -0.27440000       2.12940000
H       -3.18360000      -0.74240000      -1.30630000
H       -2.41720000       0.85120000      -1.31390000
H       -0.60560000      -0.34990000      -2.32790000
H       -2.18860000      -2.61510000       0.08050000
H       -0.73210000      -2.42260000      -0.89130000
