18
Properties=species:S:1:pos:R:3 gdb_113179=T pbc="F F F"
C        0.19680000       1.33170000       0.16920000
O       -0.40960000       0.20690000      -0.44540000
C        0.41560000      -0.43200000      -1.36120000
C        1.39450000      -1.46250000      -0.88770000
C        0.10210000      -1.90040000      -1.57110000
N       -0.99970000      -2.48140000      -0.83830000
H       -0.67990000      -3.14100000      -0.13740000
H       -1.52590000      -1.75290000      -0.36510000
H       -1.33810000      -3.28250000      -2.57050000
C        0.22560000      -2.38630000      -2.99630000
O       -0.76110000      -3.21330000      -3.36180000
O        1.11590000      -2.04900000      -3.73560000
H        1.10090000       1.04730000       0.72440000
H        0.46690000       2.09470000      -0.57400000
H       -0.53670000       1.75120000       0.86070000
H        0.66980000       0.14630000      -2.24820000
H        2.30950000      -1.59680000      -1.45210000
H        1.44830000      -1.64070000       0.18110000
