19
Properties=species:S:1:pos:R:3 gdb_26330=T pbc="F F F"
C        0.08620000       1.42740000      -0.40350000
C        0.02870000       0.01330000       0.18390000
O        0.47400000      -0.00200000       1.53820000
C       -1.33360000      -0.61660000       0.05750000
C       -1.96760000      -1.34180000       1.01730000
O       -3.18460000      -1.76920000       0.57710000
C       -3.33600000      -1.31330000      -0.69880000
C       -4.60600000      -1.66100000      -1.38890000
C       -2.23520000      -0.60240000      -1.06490000
H        1.08770000       1.84360000      -0.26660000
H       -0.14660000       1.42490000      -1.47290000
H       -0.63790000       2.08230000       0.09470000
H        0.76460000      -0.60840000      -0.34300000
H       -0.14960000       0.53090000       2.04540000
H       -1.68970000      -1.64190000       2.01290000
H       -5.47620000      -1.26210000      -0.85520000
H       -4.60490000      -1.24630000      -2.39930000
H       -4.73840000      -2.74630000      -1.46350000
H       -2.08210000      -0.12530000      -2.02060000
