16
Properties=species:S:1:pos:R:3 gdb_125238=T pbc="F F F"
C       -0.05600000       1.53820000       0.02240000
C       -0.01000000       0.03640000      -0.02620000
C       -0.00590000      -0.65990000      -1.18880000
C        0.01450000      -2.11630000      -1.21970000
O        0.01620000      -2.82280000      -2.21650000
N        0.02910000      -2.66230000       0.05710000
N        0.05170000      -2.02100000       1.24510000
C        0.01800000      -0.71980000       1.21080000
N       -0.06980000      -0.04600000       2.43050000
H        0.85840000       1.95250000       0.46700000
H       -0.15740000       1.96010000      -0.97930000
H       -0.89510000       1.88100000       0.63710000
H       -0.02850000      -0.16280000      -2.15220000
H        0.04320000      -3.67070000       0.11930000
H        0.09070000      -0.66870000       3.21210000
H        0.50250000       0.78460000       2.49660000
