18
Properties=species:S:1:pos:R:3 gdb_114292=T pbc="F F F"
C       -0.08920000       1.58090000      -0.04340000
C        0.05390000       0.08450000       0.25670000
C       -1.27400000      -0.63790000       0.16060000
O       -1.91060000      -0.59290000      -1.16450000
C       -2.18230000      -1.97910000      -1.09230000
C       -0.91520000      -2.80330000      -1.11910000
C        0.25770000      -2.42530000      -1.85930000
N        1.20080000      -2.15590000      -2.47260000
C       -1.40410000      -2.16380000       0.18270000
H        0.87720000       2.08690000       0.03160000
H       -0.47480000       1.73330000      -1.05520000
H       -0.77820000       2.06600000       0.65710000
H        0.77850000      -0.36660000      -0.42490000
H        0.43380000      -0.06450000       1.27620000
H       -1.98760000      -0.21270000       0.87960000
H       -3.14060000      -2.34260000      -1.44440000
H       -1.10340000      -3.87400000      -1.13070000
H       -1.59600000      -2.77330000       1.05510000
