15
Properties=species:S:1:pos:R:3 gdb_56872=T pbc="F F F"
N       -0.18820000       1.58920000      -0.30140000
C        0.01600000       0.18010000       0.02510000
C       -1.23270000      -0.38000000       0.57190000
N       -2.19730000      -0.85670000       0.99140000
C        0.52560000      -0.66680000      -1.15350000
C        0.38530000      -2.20090000      -1.14080000
C       -0.53780000      -1.95930000      -2.33630000
O       -1.17510000      -2.58980000      -3.10920000
O       -0.39270000      -0.58340000      -2.28930000
H        0.70130000       2.01670000      -0.54080000
H       -0.78660000       1.65840000      -1.12050000
H        0.76820000       0.12100000       0.82290000
H        1.51120000      -0.29550000      -1.45030000
H        1.28450000      -2.77220000      -1.37380000
H       -0.11930000      -2.63050000      -0.27390000
