22
Properties=species:S:1:pos:R:3 gdb_107340=T pbc="F F F"
C        0.28490000       1.41080000       0.37230000
C       -0.24000000       0.08880000      -0.20140000
C        0.58720000      -0.43980000      -1.36280000
C        0.50990000       0.36800000      -2.65230000
C        1.31650000      -0.21810000      -3.82840000
C        1.15670000      -1.71150000      -3.94800000
C        0.89680000      -2.47640000      -2.88520000
C        0.75930000      -1.91670000      -1.51820000
N        1.84830000      -1.07020000      -0.94480000
H        1.33220000       1.30390000       0.67120000
H        0.21960000       2.22890000      -0.35230000
H       -0.29090000       1.70830000       1.25390000
H       -0.23620000      -0.66750000       0.59060000
H       -1.28260000       0.20440000      -0.52570000
H       -0.54870000       0.41740000      -2.93980000
H        0.82880000       1.40070000      -2.47360000
H        1.00640000       0.27350000      -4.75710000
H        2.38130000       0.03490000      -3.71600000
H        1.27780000      -2.16040000      -4.92970000
H        0.78570000      -3.55170000      -2.99320000
H        0.30580000      -2.57210000      -0.77910000
H        2.57080000      -0.94930000      -1.65140000
