22
Properties=species:S:1:pos:R:3 gdb_86745=T pbc="F F F"
C        0.63500000       1.57390000      -0.17930000
C       -0.09930000       0.23860000       0.03580000
C        0.22400000      -0.83210000      -1.04410000
C        1.20740000      -1.83550000      -0.38940000
C        1.04000000      -1.55500000       1.08660000
C        0.33320000      -0.45090000       1.31140000
N        0.86870000      -3.21950000      -0.73310000
C        1.47740000      -3.74380000      -1.95260000
C        1.94940000      -4.19400000      -0.61530000
H        1.71800000       1.42050000      -0.23960000
H        0.30720000       2.05600000      -1.10650000
H        0.44330000       2.26910000       0.64510000
H       -1.17590000       0.45250000       0.05620000
H       -0.68100000      -1.38740000      -1.30590000
H        0.62100000      -0.39090000      -1.96270000
H        2.25200000      -1.62020000      -0.69220000
H        1.48310000      -2.19140000       1.84480000
H        0.11510000      -0.03770000       2.29140000
H        0.84460000      -4.38300000      -2.56140000
H        2.13950000      -3.08770000      -2.51640000
H        2.92660000      -3.83890000      -0.29030000
H        1.66820000      -5.16870000      -0.22700000
