16
Properties=species:S:1:pos:R:3 gdb_28329=T pbc="F F F"
N        0.01870000       1.36330000      -0.04480000
C       -0.05700000      -0.02920000      -0.02920000
C       -1.15820000      -0.83950000       0.11920000
N       -0.62890000      -2.14080000       0.06960000
C       -1.05700000      -3.48930000      -0.22850000
C        0.32980000      -4.19280000      -0.19540000
O        1.31140000      -3.16230000      -0.44790000
C        0.68800000      -1.99300000      -0.18780000
N        1.10930000      -0.76310000      -0.23470000
H        0.95960000       1.67540000       0.15600000
H       -0.64620000       1.81590000       0.56710000
H       -2.18830000      -0.63730000       0.35270000
H       -1.73730000      -3.89990000       0.52270000
H       -1.53950000      -3.55430000      -1.21300000
H        0.52340000      -4.62330000       0.79310000
H        0.44400000      -4.96480000      -0.95690000
