13
Properties=species:S:1:pos:R:3 gdb_25307=T pbc="F F F"
O        0.05350000      -0.06730000      -0.00230000
C        0.02290000       1.14110000       0.00900000
C        1.20490000       2.00020000       0.00290000
C        1.35470000       3.37580000       0.01370000
C        0.30180000       4.39970000       0.03550000
O        0.53360000       5.58670000       0.04370000
C        2.76180000       3.62400000      -0.00060000
C        3.35140000       2.39970000      -0.01870000
O        2.42500000       1.41100000      -0.01680000
H       -0.93290000       1.70400000       0.02540000
H       -0.74070000       4.02020000       0.04450000
H        3.23990000       4.58960000       0.00250000
H        4.37840000       2.07230000      -0.03370000
