20
Properties=species:S:1:pos:R:3 gdb_120522=T pbc="F F F"
C       -0.31460000       1.46450000      -0.59020000
O       -0.09280000       0.12550000      -0.21490000
C        0.75540000      -0.56550000      -1.10230000
C        0.91690000      -1.99000000      -0.59880000
C       -0.37650000      -2.84490000      -0.70430000
C        0.19290000      -3.49990000      -2.00560000
C        1.60140000      -2.93580000      -1.62560000
C        0.05670000      -4.93680000      -2.16500000
N       -0.04120000      -6.08430000      -2.27220000
H        0.62280000       2.04220000      -0.61500000
H       -0.78820000       1.53800000      -1.58210000
H       -0.98200000       1.90640000       0.15330000
H        0.33090000      -0.55810000      -2.12350000
H        1.74180000      -0.07320000      -1.16440000
H        1.37250000      -1.96310000       0.39340000
H       -0.46660000      -3.57140000       0.10490000
H       -1.31750000      -2.30220000      -0.80300000
H       -0.20010000      -3.01020000      -2.90060000
H        2.16860000      -2.47420000      -2.43760000
H        2.22390000      -3.69330000      -1.14680000
