14
Properties=species:S:1:pos:R:3 gdb_97788=T pbc="F F F"
O        0.06400000       1.48950000      -0.19920000
C        0.04450000       0.11110000       0.13160000
C       -1.30330000      -0.45790000       0.17780000
C       -2.41960000      -0.91070000       0.16780000
C       -3.75120000      -1.43800000       0.19420000
O       -4.31350000      -1.92310000      -1.03580000
C       -4.03470000      -2.88340000      -0.02660000
C       -2.96330000      -3.82090000      -0.28500000
N       -2.12580000      -4.59550000      -0.46780000
H       -0.36980000       1.59230000      -1.05300000
H        0.65880000      -0.48610000      -0.55980000
H        0.51150000       0.03120000       1.11930000
H       -4.46710000      -0.90510000       0.81890000
H       -4.90630000      -3.31970000       0.45850000
