23
Properties=species:S:1:pos:R:3 gdb_121348=T pbc="F F F"
C        0.25030000       1.54250000      -0.38070000
C       -0.00170000       0.10190000       0.06180000
O        0.25360000      -0.77060000      -1.04900000
C        1.31660000      -1.66970000      -0.75190000
C        2.04920000      -1.07820000       0.45250000
C        0.88840000      -0.42050000       1.22020000
C        1.27570000       0.61280000       2.27910000
C        2.03070000       0.01060000       3.45890000
O        2.26690000       1.05110000       4.39550000
H        1.30730000       1.71440000      -0.60800000
H       -0.32400000       1.74280000      -1.28940000
H       -0.06200000       2.25780000       0.38650000
H       -1.06200000      -0.00010000       0.33120000
H        0.91430000      -2.66660000      -0.51020000
H        1.94650000      -1.77060000      -1.64240000
H        2.58230000      -1.83560000       1.03260000
H        2.77660000      -0.32200000       0.13420000
H        0.32570000      -1.22410000       1.71590000
H        1.89470000       1.40290000       1.83980000
H        0.37640000       1.10150000       2.67380000
H        1.43280000      -0.80090000       3.90690000
H        2.97740000      -0.43510000       3.11490000
H        2.76350000       0.68550000       5.13320000
