21
Properties=species:S:1:pos:R:3 gdb_118861=T pbc="F F F"
C        0.02320000       1.32390000      -0.24650000
O        0.26410000      -0.06020000      -0.15080000
C        0.54540000      -0.49110000       1.17150000
C        0.58630000      -1.99830000       1.12980000
O       -0.61380000      -2.54060000       0.64820000
C        1.87000000      -2.72350000       0.79810000
C        1.25520000      -2.83190000       2.18090000
C        1.94040000      -2.26170000       3.39470000
O        2.89610000      -3.21680000       3.83810000
H        0.89940000       1.91180000       0.06840000
H       -0.19220000       1.54720000      -1.29420000
H       -0.83640000       1.63210000       0.36880000
H        1.49680000      -0.06430000       1.52220000
H       -0.25360000      -0.15330000       1.85230000
H       -0.79330000      -2.07480000      -0.17850000
H        1.79520000      -3.58500000       0.14540000
H        2.78060000      -2.14190000       0.69360000
H        0.73240000      -3.76340000       2.37790000
H        2.42840000      -1.30510000       3.14920000
H        1.19630000      -2.05600000       4.18110000
H        3.27810000      -2.89610000       4.66060000
