16
Properties=species:S:1:pos:R:3 gdb_44863=T pbc="F F F"
O        0.00430000      -0.00010000       0.08740000
C        0.00650000       1.20270000      -0.00930000
N       -1.10190000       2.03740000      -0.07720000
C       -0.64750000       3.43610000       0.03270000
C        0.62490000       3.34880000      -0.83560000
C        1.21290000       2.17730000      -0.01930000
C        1.15740000       2.75340000       1.41430000
O        1.24600000       4.18260000       1.51790000
C       -0.05210000       3.57980000       1.45320000
H       -1.98700000       1.71680000       0.28570000
H       -1.41480000       4.14870000      -0.26690000
H        0.38960000       3.07450000      -1.86440000
H        1.23480000       4.24840000      -0.80170000
H        2.14840000       1.72270000      -0.33580000
H        1.53350000       2.18720000       2.25950000
H       -0.68570000       3.69350000       2.32790000
