16
Properties=species:S:1:pos:R:3 gdb_126201=T pbc="F F F"
C        0.02850000       1.56390000       0.07650000
C       -0.01080000       0.02440000       0.04030000
C       -1.39860000      -0.52400000      -0.05020000
C       -2.23550000      -0.73610000      -1.14500000
C       -3.44590000      -1.23620000      -0.59450000
N       -3.37720000      -1.33060000       0.72210000
N       -2.13260000      -0.89190000       1.02150000
C       -1.91680000      -0.49710000      -2.50120000
N       -1.64590000      -0.29710000      -3.61010000
H        1.06190000       1.91490000       0.14390000
H       -0.41690000       1.98400000      -0.82910000
H       -0.52240000       1.95420000       0.93760000
H        0.55880000      -0.33410000      -0.82280000
H        0.48120000      -0.38290000       0.93140000
H       -4.34230000      -1.52650000      -1.12080000
H       -1.84200000      -0.88160000       1.98590000
