18
Properties=species:S:1:pos:R:3 gdb_11987=T pbc="F F F"
C       -0.11370000       1.59320000       0.00350000
C        0.02830000       0.07960000       0.01240000
O       -1.19050000      -0.54550000       0.39920000
C        0.67120000      -0.61440000      -1.20290000
C        2.11210000      -0.21950000      -1.35750000
C        1.75160000      -1.23610000      -0.31180000
C        1.15710000      -0.55540000       0.91190000
O        2.05520000       0.29600000       1.58790000
H        0.83990000       2.09100000      -0.18320000
H       -0.82020000       1.91030000      -0.77370000
H       -0.49780000       1.93860000       0.96910000
H       -1.86240000      -0.30810000      -0.24940000
H        0.10620000      -1.08540000      -1.99920000
H        2.60790000      -0.62370000      -2.23440000
H        2.46330000       0.76510000      -1.06650000
H        2.15440000      -2.24090000      -0.32620000
H        0.68040000      -1.27230000       1.59070000
H        1.61180000       0.63990000       2.37000000
