18
Properties=species:S:1:pos:R:3 gdb_37706=T pbc="F F F"
C       -0.03950000       1.54310000       0.00900000
C        1.46300000       1.84970000       0.06150000
C        2.11230000       1.45070000       1.38870000
C        1.69530000       0.02590000       1.65530000
O        0.43500000      -0.47280000       1.28340000
C        0.00650000       0.00300000      -0.00120000
C        1.11100000      -0.25980000      -1.03540000
N        2.17300000       0.69220000      -0.63950000
C        2.77460000       0.28450000       0.64910000
H       -0.58330000       1.93600000       0.87130000
H       -0.50340000       1.92090000      -0.90780000
H        1.76010000       2.81860000      -0.34250000
H        2.50540000       2.11710000       2.14580000
H        1.99700000      -0.39550000       2.60800000
H       -0.94940000      -0.48450000      -0.20060000
H        1.48600000      -1.28610000      -1.00360000
H        0.76480000      -0.03990000      -2.05170000
H        3.78240000      -0.11580000       0.68910000
