16
Properties=species:S:1:pos:R:3 gdb_128722=T pbc="F F F"
C       -0.01170000       1.35700000       0.02260000
O       -0.01280000      -0.07290000       0.02130000
C       -1.21810000      -0.65140000       0.04810000
N       -2.34040000       0.03010000       0.07540000
O       -3.35150000      -0.97530000       0.09420000
C       -2.76760000      -2.17740000       0.06090000
N       -3.57450000      -3.28200000       0.12590000
C       -1.40480000      -2.06590000       0.03060000
N       -0.48600000      -3.14460000      -0.02980000
H        1.03690000       1.65530000      -0.00170000
H       -0.53970000       1.74510000      -0.85380000
H       -0.49770000       1.74310000       0.92370000
H       -4.48330000      -3.17180000      -0.30120000
H       -3.09240000      -4.12490000      -0.15650000
H        0.04820000      -3.23090000       0.83020000
H        0.18940000      -3.00850000      -0.77580000
