20
Properties=species:S:1:pos:R:3 gdb_63309=T pbc="F F F"
C       -0.14630000       1.61940000       0.06680000
C        0.01110000       0.09370000       0.02930000
C       -1.36790000      -0.58430000      -0.05890000
N        0.86500000      -0.32450000      -1.08690000
C        1.77740000      -1.31670000      -0.80200000
O        2.39040000      -1.97380000      -1.61450000
C        1.85590000      -1.39900000       0.70000000
C        2.23490000      -0.09710000       1.37930000
C        0.78990000      -0.46620000       1.23110000
H        0.82540000       2.11510000       0.12570000
H       -0.65990000       1.98050000      -0.83120000
H       -0.74210000       1.92140000       0.93380000
H       -1.89050000      -0.28520000      -0.97370000
H       -1.26230000      -1.67290000      -0.06560000
H       -1.99570000      -0.30160000       0.79290000
H        0.60970000      -0.15090000      -2.04710000
H        2.12280000      -2.34810000       1.14440000
H        2.66360000      -0.17560000       2.37230000
H        2.65390000       0.69530000       0.76830000
H        0.21660000      -0.71020000       2.11780000
