16
Properties=species:S:1:pos:R:3 gdb_35138=T pbc="F F F"
N       -0.61100000      -0.81120000      -0.71810000
C       -0.11170000       0.16390000      -0.35050000
C        0.49800000       1.41030000       0.11750000
C       -0.11230000       2.04560000       1.39180000
C        1.31420000       1.88350000       1.97350000
O        1.76130000       1.19640000       0.77800000
C        2.06550000       3.16870000       2.20860000
C        3.33720000       3.45020000       1.53380000
O        2.11570000       4.06150000       1.09740000
H        0.60190000       2.10120000      -0.72580000
H       -0.45570000       3.07170000       1.26810000
H       -0.87940000       1.44110000       1.87340000
H        1.39410000       1.23570000       2.85450000
H        1.86020000       3.64450000       3.16970000
H        4.05360000       4.12390000       1.99990000
H        3.74240000       2.70560000       0.85460000
