21
Properties=species:S:1:pos:R:3 gdb_100630=T pbc="F F F"
C       -0.10810000       1.59130000       0.07500000
C        0.01180000       0.04890000       0.02640000
C        0.69630000      -0.45680000       1.31940000
C       -1.33710000      -0.52630000      -0.04340000
C       -2.44210000      -0.99840000      -0.07060000
C        0.80930000      -0.44100000      -1.22240000
O        0.19400000      -0.04940000      -2.45050000
C        2.29040000      -0.03860000      -1.27560000
O        2.87910000      -0.53310000      -2.45950000
H        0.87480000       2.06440000       0.15430000
H       -0.62110000       1.98610000      -0.80780000
H       -0.69980000       1.88950000       0.94410000
H        0.06480000      -0.24300000       2.18530000
H        0.85770000      -1.53800000       1.28000000
H        1.66130000       0.03460000       1.47310000
H       -3.41680000      -1.41820000      -0.10930000
H        0.76200000      -1.53500000      -1.23660000
H        0.12680000       0.91230000      -2.45950000
H        2.38570000       1.06000000      -1.21380000
H        2.84610000      -0.46470000      -0.43540000
H        2.20850000      -0.41380000      -3.14540000
