19
Properties=species:S:1:pos:R:3 gdb_90883=T pbc="F F F"
O        0.34850000       1.26180000      -0.43750000
C        0.07050000      -0.06070000      -0.06020000
C        0.24850000      -0.43730000       1.44720000
C       -1.24650000      -0.83630000       1.53570000
C       -2.20370000       0.23420000       2.09200000
C       -3.46180000       0.07680000       1.20610000
C       -2.44900000       0.65260000       0.18880000
O       -1.86130000       1.42550000       1.29740000
C       -1.43480000      -0.48950000       0.01260000
H       -0.13680000       1.81670000       0.18910000
H        0.65450000      -0.69750000      -0.72960000
H        0.94290000      -1.26290000       1.62100000
H        0.54200000       0.40680000       2.07740000
H       -1.47630000      -1.84350000       1.88580000
H       -2.23580000       0.42350000       3.16500000
H       -3.87120000      -0.92330000       1.04220000
H       -4.24020000       0.79660000       1.46060000
H       -2.73060000       1.26440000      -0.66690000
H       -1.76350000      -1.26320000      -0.68330000
