12
Properties=species:S:1:pos:R:3 gdb_21399=T pbc="F F F"
N       -0.02090000       1.23310000       0.47880000
C       -0.01980000       0.08980000      -0.05420000
N       -1.18270000      -0.54400000      -0.42620000
C       -1.25910000      -1.78800000      -1.01150000
N       -2.38910000      -2.29270000      -1.32140000
C        0.06660000      -2.39190000      -1.20580000
N        1.18490000      -1.86410000      -0.88600000
O        1.15670000      -0.59920000      -0.29790000
H        0.92700000       1.54040000       0.68450000
H       -2.04170000      -0.04180000      -0.24870000
H       -2.27120000      -3.21240000      -1.74260000
H        0.13590000      -3.37570000      -1.66010000
