19
Properties=species:S:1:pos:R:3 gdb_59890=T pbc="F F F"
C       -0.10650000       1.13020000       0.03530000
C        0.13740000      -0.32710000       0.41970000
O        0.72900000      -0.43740000       1.71210000
C       -1.13210000      -1.18870000       0.34940000
C       -1.61480000      -1.48980000      -1.05620000
O       -1.09900000      -1.03860000      -2.05580000
C       -2.80850000      -2.39880000      -1.19940000
C       -2.83930000      -3.73640000      -0.57100000
O       -3.59830000      -2.66190000      -0.03810000
H        0.82060000       1.70220000       0.12750000
H       -0.46600000       1.20140000      -0.99370000
H       -0.85710000       1.58530000       0.69540000
H        0.87860000      -0.75470000      -0.26320000
H        0.17390000       0.04930000       2.33140000
H       -0.94490000      -2.13420000       0.87340000
H       -1.96350000      -0.72190000       0.89640000
H       -3.35890000      -2.25430000      -2.12770000
H       -3.41000000      -4.52510000      -1.05810000
H       -1.99980000      -4.07040000       0.03590000
