17
Properties=species:S:1:pos:R:3 gdb_12982=T pbc="F F F"
C       -0.09110000       1.51140000      -0.02710000
C        0.03770000       0.01070000       0.00780000
C       -0.78890000      -0.83710000       0.96150000
C        0.70450000      -0.80140000       1.10100000
C        1.45330000      -1.91480000       0.39670000
O        1.01070000      -1.88780000      -0.97250000
C        0.37670000      -0.70450000      -1.25690000
N        0.12320000      -0.28950000      -2.42280000
H        0.83940000       1.98110000      -0.36060000
H       -0.87730000       1.80500000      -0.72810000
H       -0.34150000       1.90530000       0.96230000
H       -1.37170000      -0.29110000       1.69540000
H       -1.26060000      -1.74130000       0.58900000
H        1.16170000      -0.32710000       1.96080000
H        2.53760000      -1.75040000       0.42350000
H        1.24040000      -2.91280000       0.79340000
H        0.48780000      -0.93860000      -3.12180000
