23
Properties=species:S:1:pos:R:3 gdb_118584=T pbc="F F F"
C        0.11260000       1.47350000       0.59360000
C        0.53180000       0.05850000       0.23010000
O        0.58890000      -0.70390000       1.42430000
C        0.73400000      -2.10280000       1.25840000
C        1.94990000      -2.50960000       0.40430000
O        3.15770000      -1.92540000       0.83560000
C        0.79330000      -2.70900000       2.66300000
O        2.00580000      -2.43240000       3.35670000
C        1.98460000      -1.24070000       4.13250000
H        0.83490000       1.92130000       1.28230000
H        0.06060000       2.09740000      -0.30380000
H       -0.86860000       1.47420000       1.07680000
H       -0.19520000      -0.38920000      -0.46820000
H        1.51180000       0.06550000      -0.26560000
H       -0.16490000      -2.51910000       0.76290000
H        1.99530000      -3.61290000       0.39760000
H        1.80150000      -2.19840000      -0.63490000
H        3.20660000      -2.10160000       1.78570000
H       -0.06760000      -2.35760000       3.24780000
H        0.73060000      -3.79980000       2.57690000
H        2.93860000      -1.19590000       4.66380000
H        1.86360000      -0.35290000       3.50520000
H        1.16970000      -1.27230000       4.86980000
