19
Properties=species:S:1:pos:R:3 gdb_92059=T pbc="F F F"
C       -0.22780000       1.50970000      -0.03780000
C        0.09250000       0.02070000       0.01760000
N        0.96480000      -0.36680000      -1.09810000
C        1.13740000      -1.79070000      -1.16030000
C        2.52190000      -2.34680000      -0.88290000
C        1.45780000      -2.38020000       0.17910000
O        1.56340000      -1.50370000       1.27630000
C        0.80900000      -0.35980000       1.30590000
N        0.73600000       0.34550000       2.35200000
H        0.69460000       2.09560000      -0.04300000
H       -0.79680000       1.73780000      -0.94610000
H       -0.81580000       1.80440000       0.83120000
H       -0.85850000      -0.54630000       0.00240000
H        0.63160000       0.01620000      -1.97330000
H        0.47060000      -2.36240000      -1.80690000
H        2.81380000      -3.28830000      -1.33490000
H        3.30780000      -1.61120000      -0.76130000
H        1.02850000      -3.33470000       0.46650000
H        1.27040000      -0.08930000       3.10700000
