14
Properties=species:S:1:pos:R:3 gdb_3680=T pbc="F F F"
C        0.02340000       1.52770000       0.00690000
C        0.00560000       0.03240000      -0.00470000
C       -0.03180000      -0.81980000      -1.06020000
O       -0.03590000      -2.09750000      -0.65060000
N       -0.00010000      -2.11670000       0.74070000
C        0.02450000      -0.86020000       1.11760000
C        0.06660000      -0.50830000       2.56960000
H        0.92320000       1.91660000       0.49710000
H       -0.00050000       1.93010000      -1.00910000
H       -0.83820000       1.93700000       0.54660000
H       -0.05800000      -0.66760000      -2.12880000
H        0.96370000       0.07360000       2.80740000
H       -0.79960000       0.10000000       2.85200000
H        0.06850000      -1.41570000       3.17620000
