18
Properties=species:S:1:pos:R:3 gdb_66786=T pbc="F F F"
C       -0.05560000       1.48600000       0.02530000
C        0.00720000      -0.01220000      -0.02850000
C        0.65950000      -0.75090000      -1.21910000
C        0.21850000      -2.16730000      -0.94250000
C        1.45220000      -1.62320000      -0.25320000
C        0.82480000      -0.89750000       0.96440000
C       -0.51510000      -1.57180000       1.32390000
C       -0.95350000      -2.12260000       0.02200000
N       -1.30130000      -0.71530000       0.35860000
H        0.93310000       1.92510000      -0.14340000
H       -0.73790000       1.86720000      -0.74290000
H       -0.42390000       1.82460000       0.99850000
H        0.91480000      -0.35820000      -2.19620000
H        0.30240000      -2.92890000      -1.70610000
H        2.44610000      -2.04270000      -0.35040000
H        1.45980000      -0.46580000       1.73400000
H       -0.89880000      -1.84290000       2.30170000
H       -1.79150000      -2.80330000      -0.06860000
