20
Properties=species:S:1:pos:R:3 gdb_105487=T pbc="F F F"
C       -0.10100000       1.51780000       0.31970000
C        0.18410000       0.01400000       0.26210000
C        0.68250000      -0.45100000      -1.10180000
C        0.61610000      -1.97530000      -1.38250000
C       -0.35620000      -1.59100000      -2.51240000
O       -0.28470000      -0.18740000      -2.16420000
C        2.06060000       0.15230000      -1.41070000
N        2.11100000       0.85420000      -2.56890000
O        3.00470000      -0.02390000      -0.66210000
H        0.81170000       2.10330000       0.16970000
H       -0.82190000       1.80280000      -0.45210000
H       -0.51660000       1.79510000       1.29260000
H        0.94740000      -0.26290000       0.99680000
H       -0.72640000      -0.54790000       0.50020000
H        1.55570000      -2.43550000      -1.68780000
H        0.17780000      -2.55580000      -0.56910000
H        0.00650000      -1.77390000      -3.53060000
H       -1.37840000      -1.97420000      -2.42420000
H        1.26520000       0.98260000      -3.09970000
H        2.96660000       1.31510000      -2.82910000
