19
Properties=species:S:1:pos:R:3 gdb_40375=T pbc="F F F"
C       -0.14710000       1.49060000      -0.10760000
C        1.26060000       0.95910000      -0.06700000
C        0.08530000       0.01340000       0.06750000
C       -0.18530000      -0.63710000       1.36470000
O       -1.52700000      -0.65450000       1.89760000
C       -0.46150000      -0.14690000       2.71380000
C        0.31750000      -1.33960000       3.35280000
C       -0.24900000      -2.66280000       2.91290000
C        0.59340000      -1.86820000       1.95140000
H       -0.50680000       2.04760000       0.75000000
H       -0.54630000       1.82860000      -1.05690000
H        1.83270000       0.93110000      -0.98750000
H        1.85030000       1.15690000       0.82140000
H       -0.12050000      -0.61640000      -0.79470000
H       -0.57540000       0.85270000       3.11830000
H        1.01030000      -1.22900000       4.17610000
H        0.24660000      -3.53010000       3.33780000
H       -1.31290000      -2.77150000       2.74560000
H        1.53110000      -2.22100000       1.54330000
