17
Properties=species:S:1:pos:R:3 gdb_52556=T pbc="F F F"
C        0.12260000       1.41060000       0.19400000
C        0.04200000      -0.03640000       0.09700000
C       -0.04680000      -1.23790000       0.02130000
C       -0.13130000      -2.68040000      -0.06520000
O       -1.18270000      -3.27510000       0.04140000
C        1.19270000      -3.39340000      -0.33360000
C        1.11510000      -4.88370000      -0.11550000
C        2.32210000      -5.68220000       0.12540000
O        1.44030000      -5.34760000       1.19720000
H        1.15440000       1.76420000       0.10040000
H       -0.47290000       1.88520000      -0.59350000
H       -0.26940000       1.75510000       1.15700000
H        1.46830000      -3.17030000      -1.37480000
H        1.97790000      -2.95700000       0.29270000
H        0.24600000      -5.36930000      -0.55480000
H        2.34090000      -6.73350000      -0.15860000
H        3.29590000      -5.19350000       0.15070000
