19
Properties=species:S:1:pos:R:3 gdb_61686=T pbc="F F F"
O       -0.01410000       1.47160000      -0.08090000
C        0.00490000       0.07240000       0.00790000
C        0.62200000      -0.56840000      -1.24990000
C       -0.11280000      -0.16580000      -2.52190000
C        0.12170000       1.24870000      -3.10000000
O        0.47910000       0.70540000      -4.39070000
C        0.46330000      -0.63820000      -3.87590000
C        0.75370000      -0.36420000       1.25000000
O        1.24960000       0.43520000       2.00670000
H        0.46800000       1.79150000       0.69850000
H       -1.02640000      -0.31510000       0.11440000
H        1.67640000      -0.27230000      -1.32010000
H        0.59730000      -1.66120000      -1.13800000
H       -1.17780000      -0.39910000      -2.42690000
H       -0.74750000       1.91180000      -3.15540000
H        0.95320000       1.79140000      -2.63560000
H        1.47450000      -1.06760000      -3.81260000
H       -0.16570000      -1.30630000      -4.47620000
H        0.82570000      -1.45730000       1.42440000
