18
Properties=species:S:1:pos:R:3 gdb_16969=T pbc="F F F"
O        0.01620000       1.44160000      -0.08770000
C        0.02810000       0.02820000       0.01680000
C        0.61470000      -0.53910000       1.34980000
C       -0.59810000      -1.32210000       1.89660000
C       -1.65570000      -0.34420000       2.45320000
C       -2.23110000       0.25680000       1.13540000
C       -1.41800000      -0.52080000       0.07940000
O       -1.21650000      -1.80130000       0.68800000
H        0.92450000       1.74350000      -0.17880000
H        0.54280000      -0.41310000      -0.84620000
H        1.46040000      -1.20650000       1.16680000
H        0.94220000       0.26880000       2.01030000
H       -0.35800000      -2.16800000       2.54100000
H       -2.42070000      -0.88650000       3.01380000
H       -1.22070000       0.40910000       3.11470000
H       -3.29630000       0.04200000       1.02770000
H       -2.08140000       1.33310000       1.05130000
H       -1.89900000      -0.64300000      -0.89060000
