18
Properties=species:S:1:pos:R:3 gdb_98493=T pbc="F F F"
C        0.00670000       1.43170000      -0.15100000
N       -0.10240000      -0.00970000      -0.24180000
C       -1.14460000      -0.69770000       0.28590000
O       -2.07690000      -0.17680000       0.87930000
C       -1.09150000      -2.20370000       0.09460000
C       -1.72470000      -3.00780000       1.23570000
C       -2.46430000      -2.87100000      -0.04660000
C        0.02260000      -2.77220000      -0.60860000
C        0.96780000      -3.22560000      -1.20210000
H        0.91230000       1.72860000       0.38970000
H        0.02690000       1.89240000      -1.14500000
H       -0.86730000       1.79360000       0.39180000
H        0.61690000      -0.53580000      -0.71290000
H       -1.25650000      -3.95520000       1.47300000
H       -2.06320000      -2.41150000       2.07410000
H       -3.30010000      -2.18250000      -0.07060000
H       -2.51840000      -3.72160000      -0.71480000
H        1.79400000      -3.64220000      -1.72310000
