15
Properties=species:S:1:pos:R:3 gdb_56492=T pbc="F F F"
N        0.05500000       1.51860000       0.03380000
C        0.02530000       0.05620000      -0.02960000
C        0.66760000      -0.50400000      -1.22220000
C        1.22620000      -0.91120000      -2.20570000
C        0.69680000      -0.50740000       1.27650000
C        0.01690000      -0.04160000       2.48360000
C       -0.54780000       0.31820000       3.47890000
C        0.74710000      -1.97800000       1.25170000
N        0.78070000      -3.13200000       1.23740000
H        0.98110000       1.85070000      -0.22280000
H       -0.58230000       1.89710000      -0.65970000
H       -1.02420000      -0.25480000      -0.00030000
H        1.70510000      -1.29060000      -3.07500000
H        1.73450000      -0.14670000       1.27970000
H       -1.04420000       0.64410000       4.35970000
