17
Properties=species:S:1:pos:R:3 gdb_54223=T pbc="F F F"
C        0.01540000       1.51400000      -0.01210000
C        0.05540000       0.00430000      -0.04920000
O        1.08370000      -0.63260000      -0.01100000
C       -1.30850000      -0.70680000      -0.10040000
O       -2.29810000       0.12570000      -0.63020000
C       -1.16750000      -2.19160000      -0.58490000
C       -1.04370000      -2.67260000       0.89730000
C       -1.66150000      -1.33560000       1.27410000
O       -2.44150000      -0.94520000       2.09620000
H        1.02740000       1.89990000       0.11250000
H       -0.43200000       1.89880000      -0.93290000
H       -0.62750000       1.85460000       0.80670000
H       -3.01640000       0.16520000       0.01580000
H       -2.09070000      -2.52480000      -1.06060000
H       -0.30250000      -2.38240000      -1.21810000
H       -1.58450000      -3.56250000       1.22260000
H        0.00480000      -2.73290000       1.19990000
