13
Properties=species:S:1:pos:R:3 gdb_2170=T pbc="F F F"
O        0.30040000       1.17490000       0.58950000
C       -0.03720000      -0.06770000       0.03930000
C       -1.52620000      -0.26660000      -0.23840000
C       -1.48050000      -1.27420000      -1.39770000
O       -0.26320000      -0.97900000      -2.12500000
C        0.56690000      -0.24700000      -1.35390000
O        1.60890000       0.21300000      -1.72990000
H        1.14460000       1.42460000       0.18650000
H        0.34000000      -0.89750000       0.66420000
H       -2.09640000      -0.63420000       0.61580000
H       -1.95290000       0.68650000      -0.56490000
H       -1.42830000      -2.31040000      -1.04570000
H       -2.31010000      -1.18230000      -2.10010000
