20
Properties=species:S:1:pos:R:3 gdb_58347=T pbc="F F F"
C        0.99910000      -1.26690000       0.41250000
N        0.14680000      -0.09410000       0.28580000
C        0.68940000       0.89860000      -0.64110000
C       -1.26320000      -0.38610000       0.14560000
C       -2.06800000       0.86570000       0.53460000
O       -3.19350000       1.12720000       0.20270000
C       -1.72630000      -1.03540000      -1.18380000
C       -3.13950000      -1.57130000      -1.22970000
O       -0.96340000      -1.12470000      -2.11740000
H        2.00340000      -0.94810000       0.71120000
H        0.61080000      -1.92360000       1.19870000
H        1.08790000      -1.84960000      -0.51750000
H        0.85240000       0.50930000      -1.65370000
H        0.01110000       1.75560000      -0.71240000
H        1.64200000       1.26700000      -0.24460000
H       -1.52950000      -1.10690000       0.93860000
H       -1.48310000       1.52410000       1.21240000
H       -3.84240000      -0.74970000      -1.06260000
H       -3.32040000      -2.04700000      -2.19440000
H       -3.29880000      -2.29610000      -0.42280000
