20
Properties=species:S:1:pos:R:3 gdb_101213=T pbc="F F F"
C       -0.26040000       1.55730000       0.11390000
C       -0.00210000       0.05010000       0.06200000
C        0.63930000      -0.40040000      -1.25810000
O        1.86050000       0.27640000      -1.51850000
C        0.84690000      -1.90980000      -1.30190000
C        1.66840000      -2.50180000      -2.46610000
C        2.64340000      -2.89600000      -1.37960000
N        3.72800000      -3.52040000      -1.33870000
O        1.90530000      -2.31720000      -0.35780000
H        0.66550000       2.11280000      -0.05440000
H       -0.97450000       1.86120000      -0.65970000
H       -0.67100000       1.85350000       1.08340000
H        0.65650000      -0.25320000       0.88650000
H       -0.94160000      -0.49990000       0.20160000
H       -0.02340000      -0.13340000      -2.09280000
H        2.48070000       0.00210000      -0.83160000
H       -0.07840000      -2.44580000      -1.06980000
H        1.21820000      -3.33240000      -3.01050000
H        2.06190000      -1.75850000      -3.16020000
H        4.08380000      -3.58770000      -0.38350000
