17
Properties=species:S:1:pos:R:3 gdb_71434=T pbc="F F F"
O       -0.09020000       1.33020000      -0.07890000
C        0.03540000      -0.04020000      -0.05100000
C        0.88050000      -0.92640000      -0.96030000
C       -0.01430000      -2.08700000      -0.43820000
C       -1.10160000      -1.01520000      -0.02500000
C       -0.26100000      -0.84830000       1.23260000
C        0.38870000      -2.22670000       1.07310000
C       -0.40010000      -3.30280000       1.76530000
O        0.07310000      -4.15310000       2.47670000
H        0.62840000       1.71580000       0.43500000
H        0.67400000      -0.71140000      -2.01230000
H        1.96130000      -1.00130000      -0.79430000
H       -0.18620000      -2.97150000      -1.04640000
H       -2.15910000      -0.90740000      -0.21190000
H       -0.53680000      -0.33610000       2.14580000
H        1.45180000      -2.34800000       1.30230000
H       -1.49700000      -3.26150000       1.56900000
