17
Properties=species:S:1:pos:R:3 gdb_109285=T pbc="F F F"
C        0.05220000       1.37160000       0.06000000
O       -0.05540000      -0.05330000       0.00010000
C       -1.30600000      -0.54120000      -0.02970000
N       -2.34790000       0.17960000      -0.04810000
C       -3.61520000      -0.54390000       0.01050000
C       -3.58540000      -1.89080000      -0.72730000
C       -2.37140000      -2.71830000      -0.34530000
O       -2.31200000      -3.92570000      -0.34710000
N       -1.27210000      -1.93430000      -0.02470000
H        1.12130000       1.58120000       0.10380000
H       -0.39430000       1.82890000      -0.82650000
H       -0.45510000       1.75990000       0.94660000
H       -3.88360000      -0.70630000       1.06530000
H       -4.39840000       0.09180000      -0.41200000
H       -4.48110000      -2.48720000      -0.54320000
H       -3.52220000      -1.71890000      -1.81020000
H       -0.38750000      -2.40150000       0.11530000
