18
Properties=species:S:1:pos:R:3 gdb_47649=T pbc="F F F"
N        0.00410000       1.36540000       0.17880000
C        0.02650000       0.11140000       0.01290000
C       -1.28330000      -0.67320000      -0.04830000
O       -1.89230000      -0.76900000      -1.32560000
C       -1.06410000      -1.25890000      -2.37820000
C       -0.38240000      -2.55090000      -2.01470000
C        0.79490000      -2.59870000      -1.38930000
C        1.63470000      -1.38180000      -1.07540000
O        1.20870000      -0.59560000       0.05690000
H        0.96190000       1.72310000       0.22860000
H       -1.11200000      -1.66480000       0.38780000
H       -2.00710000      -0.13150000       0.56210000
H       -1.73740000      -1.38980000      -3.22900000
H       -0.32350000      -0.49380000      -2.65550000
H       -0.93830000      -3.46930000      -2.18600000
H        1.19460000      -3.55720000      -1.06860000
H        2.64830000      -1.68660000      -0.80910000
H        1.70810000      -0.72220000      -1.94870000
