13
Properties=species:S:1:pos:R:3 gdb_130109=T pbc="F F F"
N        0.01850000       1.40380000       0.17060000
C        0.01240000       0.01950000       0.02610000
N       -1.02610000      -0.77750000      -0.00140000
N       -0.60300000      -2.11200000      -0.03850000
C        0.69890000      -2.03460000      -0.05310000
N        1.82340000      -2.80960000      -0.08870000
N        2.95560000      -2.03930000      -0.05420000
C        2.55040000      -0.80310000       0.00090000
N        1.16960000      -0.73770000      -0.00240000
H        0.42450000       1.88510000      -0.62640000
H       -0.93540000       1.72440000       0.29520000
H        1.89780000      -3.80850000      -0.14670000
H        3.20520000       0.04990000       0.04890000
