17
Properties=species:S:1:pos:R:3 gdb_112326=T pbc="F F F"
O       -0.11710000       1.49170000      -0.08700000
C        0.06430000       0.09280000       0.07680000
C       -1.32180000      -0.53590000      -0.00810000
N       -1.95360000      -0.32700000      -1.29310000
C       -2.49930000      -1.44830000      -1.86440000
O       -3.10690000      -1.51560000      -2.90020000
N       -2.22030000      -2.58040000      -0.99710000
C       -0.76970000      -2.88170000      -0.98820000
C       -1.36940000      -2.06020000       0.09110000
H        0.74630000       1.91400000      -0.11010000
H        0.70960000      -0.32420000      -0.70920000
H        0.51220000      -0.14850000       1.05350000
H       -1.92740000      -0.10180000       0.80080000
H       -2.05140000       0.58330000      -1.71070000
H       -0.52690000      -3.92200000      -0.79670000
H       -0.15450000      -2.39720000      -1.74140000
H       -1.53020000      -2.49610000       1.07110000
