22
Properties=species:S:1:pos:R:3 gdb_36970=T pbc="F F F"
C       -0.02730000       1.41540000       0.36080000
O       -0.05250000       0.02950000       0.07780000
C       -1.29400000      -0.57430000       0.36770000
C       -1.19300000      -2.05250000       0.10940000
C       -2.38870000      -2.79150000      -0.36680000
N       -1.24390000      -2.57110000      -1.26420000
C        1.35070000       1.94980000       0.08810000
C        1.74290000       2.33660000      -1.31370000
C        1.52660000       3.40420000      -0.27110000
H       -0.76830000       1.94840000      -0.26180000
H       -0.31020000       1.58970000       1.41390000
H       -1.57460000      -0.39190000       1.42040000
H       -2.09430000      -0.13830000      -0.25870000
H       -0.47390000      -2.56910000       0.74120000
H       -2.54580000      -3.82330000      -0.06640000
H       -3.30330000      -2.22660000      -0.53200000
H       -1.44410000      -1.80990000      -1.90940000
H        2.12600000       1.50160000       0.70240000
H        2.75590000       2.12860000      -1.63880000
H        0.99550000       2.22800000      -2.09240000
H        0.63680000       4.02030000      -0.35150000
H        2.39030000       3.92690000       0.12400000
