17
Properties=species:S:1:pos:R:3 gdb_70965=T pbc="F F F"
C       -0.07960000       1.47800000       0.02510000
C        0.02910000      -0.01580000      -0.02000000
C        0.95090000      -0.85530000      -0.90620000
C        0.09440000      -2.06570000      -0.44160000
N        0.47720000      -2.16270000       1.02050000
C       -0.31180000      -0.91700000       1.17550000
C       -1.08630000      -1.05010000      -0.10420000
C       -0.00090000      -3.28440000      -1.19900000
N       -0.10030000      -4.26150000      -1.80970000
H        0.83750000       1.92790000       0.42150000
H       -0.25390000       1.89370000      -0.97320000
H       -0.90870000       1.79510000       0.66660000
H        0.79470000      -0.63330000      -1.96430000
H        2.01640000      -0.91830000      -0.66930000
H       -0.07950000      -2.91910000       1.42110000
H       -0.60350000      -0.52220000       2.13970000
H       -2.12990000      -0.99610000      -0.38420000
