23
Properties=species:S:1:pos:R:3 gdb_101687=T pbc="F F F"
C       -0.13650000       1.62150000      -0.19890000
C       -0.05470000       0.10250000       0.00030000
C       -1.45150000      -0.52100000       0.04230000
O       -2.15330000       0.02310000       1.15080000
C        0.78930000      -0.59600000      -1.08240000
C        2.25390000      -0.18890000      -1.13380000
C        3.07210000      -0.37900000       0.12620000
C        2.94030000      -0.19530000      -2.43570000
O        2.52490000       1.03530000      -1.84010000
H        0.84920000       2.08920000      -0.14830000
H       -0.55790000       1.85850000      -1.18330000
H       -0.78020000       2.06560000       0.56340000
H        0.39460000      -0.09810000       0.98210000
H       -1.97740000      -0.30960000      -0.90420000
H       -1.36600000      -1.61650000       0.13240000
H       -3.05970000      -0.29530000       1.12020000
H        0.74690000      -1.68340000      -0.92770000
H        0.34810000      -0.39880000      -2.06720000
H        3.05070000      -1.42560000       0.44930000
H        4.11120000      -0.08870000      -0.04600000
H        2.68280000       0.23200000       0.94620000
H        4.01750000      -0.35430000      -2.47850000
H        2.39680000      -0.48740000      -3.33400000
