17
Properties=species:S:1:pos:R:3 gdb_80173=T pbc="F F F"
C       -0.03270000       1.62450000       0.02880000
C        0.05140000       0.09600000      -0.02150000
C        0.81380000      -0.53990000      -1.16850000
C        2.32460000      -0.41990000      -1.17930000
O        2.91920000       0.55710000      -0.38400000
C        1.66920000      -1.61060000      -0.52830000
O        1.55150000      -1.52560000       0.87630000
C        0.71400000      -0.49330000       1.22960000
O        0.56360000      -0.16700000       2.36810000
H        0.96390000       2.06600000      -0.01370000
H       -0.62170000       2.00390000      -0.81100000
H       -0.51430000       1.93400000       0.96000000
H       -0.96940000      -0.31150000      -0.02750000
H        0.30540000      -0.71330000      -2.10890000
H        2.80870000      -0.59700000      -2.13940000
H        3.57550000       0.13480000       0.18180000
H        1.78630000      -2.62750000      -0.88040000
