15
Properties=species:S:1:pos:R:3 gdb_16976=T pbc="F F F"
C       -0.00900000       1.55960000      -0.11360000
N        1.51780000       1.59280000       0.13530000
C        1.27340000       0.30560000       0.94570000
C        1.26920000      -1.28950000       0.93470000
O       -0.22060000      -1.13530000       1.04780000
C        0.08480000       0.02680000       0.11230000
C        0.63000000      -0.74310000      -1.10420000
C        1.44120000      -1.63650000      -0.53800000
H       -0.51080000       2.11810000       0.67760000
H       -0.32520000       1.91610000      -1.09850000
H        1.95890000       1.34770000      -0.75310000
H        1.02910000       0.63340000       1.95690000
H        1.69370000      -1.91160000       1.72240000
H        0.36650000      -0.56940000      -2.13810000
H        2.05250000      -2.42140000      -0.95780000
