21
Properties=species:S:1:pos:R:3 gdb_41906=T pbc="F F F"
C        0.01530000       1.51860000       0.01250000
O        1.33310000       2.03030000      -0.12530000
C        2.35290000       1.15200000       0.36550000
C        1.81910000       0.31970000       1.53310000
O        0.70020000      -0.48750000       1.16940000
C       -0.00170000      -0.00660000       0.01830000
C        0.57590000      -0.62460000      -1.28170000
C        2.08230000      -0.90560000      -1.18340000
C        2.93140000       0.31420000      -0.79120000
H       -0.44300000       1.88290000       0.94510000
H       -0.57570000       1.90720000      -0.82430000
H        3.14320000       1.80790000       0.75060000
H        2.59970000      -0.35200000       1.90870000
H        1.53800000       0.99740000       2.35320000
H       -1.03950000      -0.33370000       0.14880000
H        0.05980000      -1.56770000      -1.49110000
H        0.35830000       0.04520000      -2.12290000
H        2.22700000      -1.69730000      -0.44140000
H        2.43960000      -1.30620000      -2.13850000
H        3.04190000       0.99690000      -1.64130000
H        3.94090000      -0.01960000      -0.52040000
