17
Properties=species:S:1:pos:R:3 gdb_69569=T pbc="F F F"
C       -0.08890000       1.54730000       0.05070000
C        0.11350000       0.06700000      -0.00520000
N       -0.76350000      -0.90560000       0.73500000
C        0.69350000      -0.92310000       0.97630000
C        1.27970000      -1.76360000      -0.14370000
C        2.60540000      -2.42830000      -0.19510000
N        1.36360000      -3.20750000      -0.30170000
C        0.71290000      -0.75060000      -1.14680000
O        0.86130000      -0.55840000      -2.31760000
H        0.78450000       2.07310000      -0.34690000
H       -0.95610000       1.84290000      -0.54920000
H       -0.25560000       1.88730000       1.07850000
H       -1.19330000      -0.36310000       1.48700000
H        1.12450000      -0.71510000       1.94780000
H        3.18980000      -2.37350000      -1.10910000
H        3.18410000      -2.46830000       0.72500000
H        1.14240000      -3.66610000       0.57950000
