18
Properties=species:S:1:pos:R:3 gdb_26394=T pbc="F F F"
C       -0.05040000       1.51410000      -0.07370000
C        0.02590000      -0.00520000       0.01750000
C        0.60160000      -0.50810000       1.33190000
O       -1.31390000      -0.57300000      -0.06510000
C       -1.83110000      -0.68440000      -1.27450000
N       -1.32810000      -0.37910000      -2.43050000
C       -2.33840000      -0.73960000      -3.32450000
C       -3.38970000      -1.23870000      -2.64470000
O       -3.07180000      -1.20720000      -1.29950000
H        0.95480000       1.94090000      -0.00210000
H       -0.48410000       1.81960000      -1.02800000
H       -0.65630000       1.91830000       0.74330000
H        0.59560000      -0.39850000      -0.83000000
H        0.00370000      -0.15170000       2.17640000
H        0.61830000      -1.60070000       1.35660000
H        1.62480000      -0.14180000       1.45460000
H       -2.22180000      -0.60680000      -4.38830000
H       -4.35930000      -1.62960000      -2.89570000
