21
Properties=species:S:1:pos:R:3 gdb_86556=T pbc="F F F"
C       -0.56440000       1.37050000       0.15650000
C        0.15460000       0.04540000      -0.00030000
C        0.91080000      -0.21770000      -1.32270000
C        2.17000000      -0.29360000      -0.43070000
O        1.39280000      -0.00410000       0.75620000
C        2.88150000      -1.62630000      -0.33000000
C        3.94940000      -1.88760000      -1.41700000
O        5.02050000      -1.73730000      -0.46550000
C        4.08800000      -1.64760000       0.63420000
H        0.07460000       2.20050000      -0.16130000
H       -1.47950000       1.38320000      -0.44610000
H       -0.84160000       1.53240000       1.20290000
H       -0.50690000      -0.77820000       0.30150000
H        0.64970000      -1.14030000      -1.84550000
H        0.89170000       0.61380000      -2.02970000
H        2.90830000       0.50050000      -0.61320000
H        2.15530000      -2.42910000      -0.18050000
H        3.92690000      -2.89280000      -1.85780000
H        4.01000000      -1.14870000      -2.22710000
H        4.23990000      -0.74380000       1.23580000
H        4.14300000      -2.52590000       1.28960000
