19
Properties=species:S:1:pos:R:3 gdb_58613=T pbc="F F F"
C       -0.21010000       1.64220000       1.37510000
C       -0.49020000       0.23850000       1.83060000
N        1.82480000       0.09740000      -1.06950000
H        2.43900000      -0.64020000      -0.73420000
H        0.90330000      -0.32720000      -1.14640000
H        2.12220000       0.28930000      -2.02280000
C       -1.54890000      -0.46730000       1.48590000
C       -2.38990000      -1.64400000       1.52560000
N       -2.71860000      -0.42790000       0.69670000
C       -2.22640000      -0.57100000      -2.11110000
O       -1.27350000      -1.20980000      -1.90660000
O       -3.16420000       0.05910000      -2.38030000
H        0.68750000       1.65990000       0.74550000
H       -1.04350000       2.04370000       0.79130000
H       -0.03750000       2.31080000       2.22720000
H        0.24740000      -0.23970000       2.47010000
H       -2.15370000      -2.52820000       0.93910000
H       -2.98620000      -1.83300000       2.41610000
H       -3.46660000       0.12910000       1.10490000
