18
Properties=species:S:1:pos:R:3 gdb_49570=T pbc="F F F"
O       -0.17200000       0.01520000       0.12030000
C        0.02620000       1.19500000       0.25370000
C        1.32460000       1.91210000      -0.01880000
N        2.50650000       1.11140000      -0.47690000
C        2.17620000       0.56970000      -1.81230000
C        2.56930000       1.98870000      -1.72250000
C        1.41170000       2.83860000      -1.25690000
C        0.34110000       3.50190000      -2.07620000
C        1.32290000       4.33080000      -1.27630000
H       -0.78260000       1.87780000       0.60990000
H        1.59350000       2.45520000       0.89650000
H        2.92490000      -0.13680000      -2.15690000
H        1.15220000       0.29610000      -2.04130000
H        3.51390000       2.37420000      -2.09350000
H        0.44570000       3.47980000      -3.15600000
H       -0.68550000       3.45200000      -1.72870000
H        0.96230000       4.83640000      -0.38580000
H        2.09000000       4.87690000      -1.81640000
