17
Properties=species:S:1:pos:R:3 gdb_12510=T pbc="F F F"
C       -0.57150000       1.41120000       0.20220000
C        0.07480000       0.08080000      -0.05790000
C       -0.04850000      -0.57310000      -1.21420000
C        0.61080000      -1.90330000      -1.43960000
O        0.10760000      -2.95490000      -0.59070000
C        0.22280000      -2.82110000       0.75240000
N        0.56230000      -1.86810000       1.50650000
C        0.89750000      -0.51460000       1.07750000
H        0.17750000       2.16050000       0.48990000
H       -1.10640000       1.78220000      -0.67600000
H       -1.28000000       1.34560000       1.03750000
H       -0.64710000      -0.16000000      -2.02140000
H        0.43210000      -2.27050000      -2.45150000
H        1.69830000      -1.83980000      -1.29570000
H       -0.05330000      -3.77360000       1.20730000
H        1.96760000      -0.46850000       0.81970000
H        0.79020000       0.12300000       1.96160000
