21
Properties=species:S:1:pos:R:3 gdb_97555=T pbc="F F F"
C       -0.05910000       1.52650000       0.10400000
C       -0.08850000       0.00750000      -0.08120000
C        0.73210000      -0.50220000      -1.29640000
C        0.22160000       0.06650000      -2.62780000
O        2.09460000      -0.06280000      -1.19680000
C        0.67540000      -1.97260000      -1.31960000
C        0.62940000      -3.17760000      -1.29910000
C        0.61680000      -4.63970000      -1.33730000
O        0.60760000      -5.17460000      -2.65330000
H        0.97100000       1.89210000       0.11260000
H       -0.59600000       2.04690000      -0.69450000
H       -0.53130000       1.80350000       1.05120000
H        0.31610000      -0.48100000       0.81430000
H       -1.11890000      -0.35160000      -0.18310000
H        0.34820000       1.15140000      -2.63990000
H        0.79490000      -0.35640000      -3.45530000
H       -0.83450000      -0.17460000      -2.77040000
H        2.49820000      -0.53650000      -0.46110000
H        1.46980000      -5.02340000      -0.75420000
H       -0.28980000      -5.02180000      -0.85470000
H        1.32240000      -4.75130000      -3.14030000
