19
Properties=species:S:1:pos:R:3 gdb_127070=T pbc="F F F"
C       -0.17090000       1.58020000       0.74180000
N       -0.14040000       0.30560000       0.04700000
C        0.93410000      -0.58000000       0.48480000
C       -1.36900000      -0.29030000      -0.21350000
C       -1.73610000      -1.37530000      -0.99840000
C       -0.90640000      -2.29100000      -1.83730000
N       -3.09340000      -1.49520000      -0.93910000
N       -3.60040000      -0.56470000      -0.18790000
N       -2.55530000       0.16710000       0.27110000
H        0.82840000       2.02290000       0.71820000
H       -0.85360000       2.26800000       0.23390000
H       -0.47370000       1.49620000       1.80130000
H        0.81630000      -0.90370000       1.53210000
H        0.97190000      -1.46820000      -0.14610000
H        1.88920000      -0.05480000       0.39120000
H       -0.37020000      -3.04300000      -1.24470000
H       -1.56130000      -2.82580000      -2.52890000
H       -0.16270000      -1.74000000      -2.42330000
H       -2.73080000       0.94610000       0.88320000
