17
Properties=species:S:1:pos:R:3 gdb_59629=T pbc="F F F"
C        0.13440000       1.42380000       0.06820000
C       -0.12510000      -0.08000000       0.08380000
O        0.30000000      -0.69300000       1.29270000
C       -1.60350000      -0.41590000      -0.17210000
O       -1.81070000      -1.80270000      -0.33880000
C       -2.27800000      -2.32780000       0.88760000
C       -2.73180000      -1.11320000       1.68190000
O       -3.28990000      -1.05720000       2.73470000
O       -2.38110000      -0.01150000       0.95580000
H        1.18960000       1.62240000       0.27150000
H       -0.11750000       1.85960000      -0.90390000
H       -0.47190000       1.92760000       0.82920000
H        0.44460000      -0.57210000      -0.71240000
H        0.00180000      -0.13770000       2.02220000
H       -1.98470000       0.10230000      -1.05930000
H       -3.11610000      -3.00840000       0.71030000
H       -1.49150000      -2.85440000       1.44050000
