22
Properties=species:S:1:pos:R:3 gdb_56154=T pbc="F F F"
C        0.39630000       1.36790000      -0.10660000
C        0.11050000      -0.10070000       0.08480000
N       -0.11950000      -0.72940000       1.16510000
O        0.12600000      -0.73330000      -1.10440000
C       -0.14670000      -2.14610000      -1.09180000
C       -0.10180000      -2.64260000      -2.51400000
C       -1.15110000      -2.05090000      -3.43500000
C        1.25340000      -2.98600000      -3.08480000
C        0.29560000      -4.08810000      -2.70150000
H        0.39720000       1.89500000       0.84880000
H        1.36770000       1.50260000      -0.59200000
H       -0.35670000       1.81580000      -0.76230000
H       -0.09040000      -0.09390000       1.95900000
H        0.59510000      -2.64820000      -0.46230000
H       -1.12860000      -2.31110000      -0.63330000
H       -1.05170000      -0.96240000      -3.48840000
H       -1.05680000      -2.45090000      -4.44910000
H       -2.16280000      -2.27870000      -3.07830000
H        1.42180000      -2.79850000      -4.13980000
H        2.12710000      -2.82880000      -2.46150000
H        0.52340000      -4.68140000      -1.82190000
H       -0.19250000      -4.64390000      -3.49500000
