17
Properties=species:S:1:pos:R:3 gdb_49753=T pbc="F F F"
O       -0.10340000       0.01020000      -0.23780000
C       -0.00460000       1.16880000       0.07430000
C        1.30270000       1.95480000       0.05840000
C        1.33420000       2.83380000      -1.18530000
C        1.36320000       4.15790000      -1.03530000
C        1.38760000       4.66760000       0.39080000
C        2.50930000       3.93280000       1.16690000
C        1.40140000       2.86780000       1.30190000
O        0.39990000       3.91690000       1.16990000
H       -0.88460000       1.77260000       0.38250000
H        2.11960000       1.22390000       0.03330000
H        1.31430000       2.34590000      -2.15450000
H        1.40430000       4.84720000      -1.87160000
H        1.26320000       5.74630000       0.49400000
H        3.43010000       3.68560000       0.63670000
H        2.72020000       4.40090000       2.12950000
H        1.30460000       2.31660000       2.24110000
