21
Properties=species:S:1:pos:R:3 gdb_8938=T pbc="F F F"
C        0.01140000       1.58080000       0.06240000
C        0.00180000       0.05410000      -0.03410000
C       -1.40400000      -0.57090000       0.05420000
C       -1.35990000      -2.09150000      -0.15600000
N       -2.10320000      -0.20900000       1.28920000
C       -1.56850000      -0.61030000       2.58080000
C       -3.27800000       0.48610000       1.25220000
O       -3.93920000       0.81900000       2.21410000
H        1.02900000       1.97190000      -0.02820000
H       -0.58990000       2.03180000      -0.73490000
H       -0.39670000       1.92490000       1.01730000
H        0.44060000      -0.26020000      -0.98860000
H        0.64360000      -0.37700000       0.74450000
H       -2.00740000      -0.13870000      -0.75420000
H       -0.72360000      -2.58550000       0.58500000
H       -2.36250000      -2.52340000      -0.08870000
H       -0.95190000      -2.32260000      -1.14460000
H       -0.57910000      -0.17450000       2.75700000
H       -2.25890000      -0.24730000       3.34220000
H       -1.48750000      -1.69950000       2.66070000
H       -3.57720000       0.72450000       0.21260000
