19
Properties=species:S:1:pos:R:3 gdb_70157=T pbc="F F F"
O       -0.30510000       1.40390000       0.58480000
C       -0.09790000       0.11170000       0.07500000
C       -0.46590000      -0.16770000      -1.35190000
C       -1.36180000      -0.65080000      -0.20010000
C       -1.58700000      -2.08280000       0.10710000
C       -0.72510000      -3.02650000       0.49200000
C        0.75790000      -2.92110000       0.71780000
O        1.41070000      -1.81980000       0.11900000
C        1.11790000      -0.56370000       0.68940000
H        0.34830000       1.98840000       0.18330000
H       -0.83480000       0.65680000      -1.95230000
H        0.10740000      -0.92490000      -1.87340000
H       -2.24820000      -0.03700000      -0.07220000
H       -2.62580000      -2.38960000       0.00090000
H       -1.11830000      -4.02430000       0.68130000
H        0.96760000      -2.93670000       1.80360000
H        1.24610000      -3.80890000       0.29770000
H        1.99540000       0.07170000       0.50760000
H        0.98550000      -0.63870000       1.77960000
