24
Properties=species:S:1:pos:R:3 gdb_101169=T pbc="F F F"
C       -0.72150000       1.71150000      -1.67020000
C       -0.62680000       0.18810000      -1.77770000
C        0.64530000      -0.38240000      -1.13390000
O        0.75680000      -0.00090000       0.24090000
C        0.69780000      -1.89230000      -1.26970000
C        1.38980000      -2.60890000      -2.39050000
C        2.10270000      -1.90470000      -3.52690000
N        1.90340000      -2.68100000      -1.02180000
C        3.14930000      -2.02460000      -0.64800000
H       -0.65830000       2.02650000      -0.62560000
H        0.09820000       2.19600000      -2.21260000
H       -1.66260000       2.08090000      -2.08840000
H       -1.49990000      -0.27670000      -1.29710000
H       -0.65660000      -0.12370000      -2.82930000
H        1.51440000       0.08320000      -1.60740000
H        0.08040000      -0.48260000       0.73080000
H       -0.20340000      -2.36220000      -0.86320000
H        0.93920000      -3.54970000      -2.70970000
H        2.51190000      -0.93060000      -3.25490000
H        2.92930000      -2.52060000      -3.89850000
H        1.40950000      -1.75120000      -4.36100000
H        3.40170000      -1.11590000      -1.21150000
H        3.09260000      -1.75000000       0.40850000
H        3.96970000      -2.73790000      -0.77760000
