22
Properties=species:S:1:pos:R:3 gdb_106551=T pbc="F F F"
C       -0.11710000       1.60970000       0.17860000
C        0.04190000       0.09870000       0.16930000
N        1.18040000      -0.51900000      -0.68440000
C        2.09860000      -0.14370000       0.49480000
C        0.85610000      -0.69980000       1.22520000
C        0.61340000      -0.84860000       2.70420000
O        1.63510000      -1.68870000       3.22510000
C        0.93020000      -1.81170000       0.13850000
C       -0.21860000      -2.72640000      -0.24550000
H       -0.33680000       1.95850000      -0.83620000
H       -0.96630000       1.88670000       0.81310000
H        0.75630000       2.15740000       0.53790000
H       -0.92310000      -0.33660000      -0.09870000
H        3.01460000      -0.73730000       0.53680000
H        2.32620000       0.91960000       0.56400000
H        0.62410000       0.14420000       3.18380000
H       -0.38760000      -1.28080000       2.87140000
H        1.49410000      -1.78340000       4.17160000
H        1.84930000      -2.40450000       0.18220000
H       -0.06310000      -3.10380000      -1.26190000
H       -0.23350000      -3.58870000       0.42960000
H       -1.20640000      -2.26210000      -0.21010000
