15
Properties=species:S:1:pos:R:3 gdb_13526=T pbc="F F F"
N       -0.06370000       1.34120000      -0.02380000
C        0.08590000      -0.02200000      -0.04870000
O        1.12940000      -0.58830000      -0.28290000
C       -1.23480000      -0.79820000       0.10640000
O       -1.02460000      -2.15600000       0.52240000
C       -1.58140000      -1.89770000       1.82760000
C       -2.12650000      -0.53660000       1.34730000
O       -1.81960000       0.62510000       2.08610000
H        0.80160000       1.86200000      -0.04610000
H       -0.79380000       1.71140000       0.56900000
H       -1.75550000      -0.74790000      -0.85860000
H       -2.30610000      -2.66190000       2.12750000
H       -0.80460000      -1.79320000       2.59670000
H       -3.19210000      -0.57280000       1.09510000
H       -2.52330000       0.78650000       2.72150000
