17
Properties=species:S:1:pos:R:3 gdb_54967=T pbc="F F F"
C        0.02430000       1.40510000      -0.20630000
C        0.03520000      -0.09630000      -0.03840000
O       -0.03090000      -0.61820000       1.06670000
C        0.10290000      -0.91270000      -1.27240000
C        0.85940000      -2.23020000      -1.23900000
C       -0.63220000      -2.29250000      -1.21450000
O       -1.33970000      -2.66860000      -0.09470000
C       -1.33540000      -2.67320000      -2.47720000
O       -0.89520000      -2.47150000      -3.58200000
H        0.92540000       1.73370000      -0.73630000
H       -0.83180000       1.70590000      -0.82110000
H       -0.03210000       1.88990000       0.76860000
H        0.06280000      -0.39800000      -2.22530000
H        1.35690000      -2.51700000      -2.15830000
H        1.36400000      -2.47060000      -0.30940000
H       -0.95760000      -2.18570000       0.66150000
H       -2.31450000      -3.16470000      -2.30130000
