22
Properties=species:S:1:pos:R:3 gdb_5996=T pbc="F F F"
C       -0.05750000       1.33940000      -0.13320000
O        0.06840000      -0.05630000       0.01220000
C        0.74250000      -0.55410000       1.18030000
C        2.16990000       0.01090000       1.29230000
C       -0.05980000      -0.22680000       2.45050000
C        0.75740000      -2.08040000       0.97170000
C        1.49620000      -2.56680000      -0.27820000
O        1.41360000      -3.97880000      -0.42590000
H        0.91330000       1.84680000      -0.22180000
H       -0.61450000       1.50370000      -1.05960000
H       -0.61740000       1.80560000       0.68970000
H        2.16590000       1.06440000       1.58650000
H        2.73350000      -0.53790000       2.05280000
H        2.70440000      -0.07410000       0.34230000
H       -1.08690000      -0.59180000       2.35670000
H        0.39750000      -0.70370000       3.32290000
H       -0.09200000       0.84890000       2.64640000
H        1.19310000      -2.56260000       1.85380000
H       -0.28730000      -2.41320000       0.90700000
H        1.11160000      -2.04260000      -1.16260000
H        2.56630000      -2.34930000      -0.20560000
H        0.48800000      -4.20150000      -0.56750000
