19
Properties=species:S:1:pos:R:3 gdb_3013=T pbc="F F F"
C        0.15900000       1.47960000      -0.05660000
C       -0.06690000      -0.03490000      -0.07140000
C       -1.54380000      -0.47200000       0.04870000
C       -2.38120000      -0.05350000      -1.16600000
C       -1.58650000      -1.96950000       0.30790000
C       -2.63500000      -2.88640000      -0.15700000
O       -1.36120000      -2.84240000      -0.80530000
H        1.22830000       1.71230000      -0.07570000
H       -0.29650000       1.97420000      -0.91980000
H       -0.26280000       1.93410000       0.84730000
H        0.35260000      -0.46860000      -0.98780000
H        0.49510000      -0.48220000       0.75880000
H       -1.96070000       0.00820000       0.94730000
H       -2.07390000      -0.61690000      -2.05240000
H       -3.44790000      -0.23110000      -1.00050000
H       -2.26150000       1.01140000      -1.37870000
H       -1.03920000      -2.27320000       1.20400000
H       -2.83970000      -3.79550000       0.40770000
H       -3.46920000      -2.51500000      -0.74770000
