20
Properties=species:S:1:pos:R:3 gdb_117688=T pbc="F F F"
C        0.07010000       1.64600000       0.03470000
C       -0.00960000       0.11780000       0.01510000
O        0.68930000      -0.31460000       1.17900000
C       -1.45970000      -0.40460000       0.02090000
C       -2.28480000       0.02160000       1.23110000
O       -3.50330000      -0.70680000       1.17550000
C        0.69250000      -0.44660000      -1.25580000
C        2.10910000      -0.10130000      -1.33700000
N        3.22860000       0.17430000      -1.41260000
H        1.11100000       1.97040000      -0.03750000
H       -0.49180000       2.07610000      -0.79940000
H       -0.33870000       2.03420000       0.96960000
H        0.64830000      -1.27670000       1.22380000
H       -1.97490000      -0.09170000      -0.89470000
H       -1.44240000      -1.50300000       0.00540000
H       -1.72230000      -0.19560000       2.15010000
H       -2.47160000       1.10530000       1.20480000
H       -4.04000000      -0.45050000       1.93110000
H        0.59980000      -1.53960000      -1.26730000
H        0.18790000      -0.08050000      -2.15690000
