19
Properties=species:S:1:pos:R:3 gdb_102519=T pbc="F F F"
C        0.26260000       1.18080000       0.40440000
N       -0.07320000       0.00110000      -0.38910000
C       -1.41370000      -0.55160000      -0.19660000
C       -2.09900000      -0.80200000      -1.55190000
O       -1.25450000      -1.45350000      -2.48100000
C       -1.25730000      -1.89680000       0.57660000
O       -0.25160000      -2.67290000      -0.04410000
C       -0.94490000      -1.65600000       2.00260000
N       -0.70280000      -1.44220000       3.11240000
H        1.27800000       1.50220000       0.15700000
H       -0.41880000       2.03090000       0.23920000
H        0.24160000       0.93010000       1.46820000
H        0.08930000       0.14990000      -1.37790000
H       -2.05270000       0.12360000       0.38850000
H       -3.03690000      -1.35630000      -1.38880000
H       -2.36210000       0.16140000      -2.00200000
H       -0.92670000      -2.25550000      -2.05080000
H       -2.18910000      -2.47050000       0.53320000
H        0.46020000      -2.02030000      -0.19510000
