15
Properties=species:S:1:pos:R:3 gdb_30569=T pbc="F F F"
C       -0.04020000       1.40080000      -0.00890000
N        0.06030000      -0.04380000      -0.06130000
C        0.57920000      -0.61660000       0.92630000
O        0.68730000      -1.98120000       0.90490000
C        1.24250000      -2.61590000       1.96020000
C        1.41370000      -3.95730000       2.07470000
O        2.00960000      -4.17590000       3.29290000
C        2.15630000      -2.95370000       3.82720000
N        1.72160000      -1.98110000       3.08850000
H        0.49460000       1.83260000      -0.86210000
H       -1.09070000       1.69510000      -0.10960000
H        0.35980000       1.84700000       0.91520000
H        0.97020000      -0.15230000       1.83470000
H        1.19760000      -4.81180000       1.46150000
H        2.61280000      -2.89280000       4.80220000
