18
Properties=species:S:1:pos:R:3 gdb_84672=T pbc="F F F"
O       -0.19570000       1.44720000       0.35400000
C       -0.00320000       0.05140000       0.07160000
C        0.91160000      -0.60610000       1.07310000
C        0.42420000      -1.35760000       2.05710000
C       -1.05290000      -1.56880000       2.16780000
C       -1.91440000      -0.29590000       2.46160000
C       -2.44520000      -0.43910000       1.04450000
C       -1.38650000      -0.58790000       0.02260000
N       -1.74960000      -1.77480000       0.82710000
H        0.67530000       1.85430000       0.41770000
H        0.44430000      -0.04940000      -0.92950000
H        1.97970000      -0.43540000       0.96150000
H        1.07450000      -1.81570000       2.79670000
H       -1.29310000      -2.40870000       2.82020000
H       -2.68070000      -0.48810000       3.21500000
H       -1.38450000       0.62850000       2.69690000
H       -3.47980000      -0.28760000       0.75250000
H       -1.77180000      -0.69290000      -0.98830000
