24
Properties=species:S:1:pos:R:3 gdb_22457=T pbc="F F F"
C       -0.09220000       1.42620000       0.30910000
C        0.16350000      -0.07630000       0.15570000
C        0.71000000      -0.49400000      -1.23350000
C        2.11370000       0.06470000      -1.49590000
C        0.63050000      -2.00370000      -1.37540000
C       -0.71310000      -2.63560000      -1.65690000
C       -0.88550000      -2.97180000      -3.15020000
N        1.71980000      -2.66110000      -1.25660000
O        1.52010000      -4.05020000      -1.38990000
H        0.82860000       2.01030000       0.22200000
H       -0.78990000       1.78850000      -0.45470000
H       -0.52890000       1.64700000       1.28810000
H        0.87400000      -0.41680000       0.91930000
H       -0.77220000      -0.61370000       0.35060000
H        0.02460000      -0.07820000      -1.98840000
H        2.10680000       1.15790000      -1.47560000
H        2.82330000      -0.29230000      -0.74500000
H        2.48410000      -0.25530000      -2.47320000
H       -0.80850000      -3.55240000      -1.06850000
H       -1.50830000      -1.95300000      -1.34090000
H       -0.79840000      -2.07510000      -3.77260000
H       -0.12260000      -3.68530000      -3.46920000
H       -1.87000000      -3.41260000      -3.33390000
H        2.41200000      -4.39060000      -1.26680000
