21
Properties=species:S:1:pos:R:3 gdb_98595=T pbc="F F F"
C       -1.16540000       1.30030000      -1.95850000
O       -1.18800000      -0.10830000      -1.70680000
C       -1.72990000      -0.47420000      -0.52080000
O       -2.16470000       0.33290000       0.27130000
C       -1.69430000      -1.94860000      -0.38130000
C       -1.46590000      -2.62090000       0.97830000
C       -1.19570000      -1.84050000       2.24650000
C       -2.81480000      -2.71450000       0.33330000
C       -4.05380000      -2.03880000       0.87990000
H       -0.70470000       1.41890000      -2.93950000
H       -2.17850000       1.71070000      -1.96010000
H       -0.58040000       1.82150000      -1.19620000
H       -1.25010000      -2.43780000      -1.23930000
H       -0.85960000      -3.51950000       0.89080000
H       -1.72690000      -0.88940000       2.26550000
H       -1.49450000      -2.42820000       3.12170000
H       -0.12600000      -1.62560000       2.34220000
H       -3.02270000      -3.66950000      -0.14360000
H       -3.84540000      -1.03630000       1.25230000
H       -4.81700000      -1.95130000       0.09920000
H       -4.48040000      -2.63520000       1.69400000
