20
Properties=species:S:1:pos:R:3 gdb_65516=T pbc="F F F"
C       -0.06140000       1.65640000       0.23980000
C       -0.00680000       0.14440000       0.09070000
O        0.98100000      -0.28670000      -0.90900000
C        1.59790000      -1.15300000       0.05220000
C        2.18980000      -0.37620000       1.18210000
C        0.70640000      -0.68760000       1.17260000
C       -1.37660000      -0.41300000      -0.25740000
C       -1.84440000      -0.42730000      -1.66280000
N       -1.52550000      -1.68800000      -0.96330000
H        0.89840000       2.06550000       0.56200000
H       -0.33140000       2.11800000      -0.71460000
H       -0.82070000       1.93430000       0.97850000
H        1.91640000      -2.13360000      -0.28140000
H        2.76190000      -0.96070000       1.89640000
H        2.56220000       0.62930000       1.01200000
H        0.20770000      -1.24540000       1.95370000
H       -2.10930000      -0.25970000       0.53410000
H       -2.89540000      -0.27570000      -1.89080000
H       -1.14870000      -0.08350000      -2.42290000
H       -0.60240000      -1.98330000      -1.27620000
