17
Properties=species:S:1:pos:R:3 gdb_43931=T pbc="F F F"
O        0.01160000      -0.02530000       0.28010000
C       -0.03630000       1.14330000       0.05580000
C       -1.21660000       2.15400000      -0.20870000
C       -0.14910000       2.99190000      -0.90800000
C        0.43090000       4.34390000      -1.33980000
C        1.28740000       3.32580000      -2.17080000
C        2.13830000       2.48640000      -1.16770000
C        0.99950000       2.28400000      -0.14170000
O        0.09780000       2.48820000      -2.25780000
H       -2.06520000       1.81290000      -0.80290000
H       -1.56410000       2.58200000       0.73630000
H       -0.21960000       4.92200000      -1.99680000
H        0.91050000       4.97180000      -0.58480000
H        1.71940000       3.58660000      -3.13700000
H        2.48830000       1.56950000      -1.64620000
H        2.99800000       3.01810000      -0.75130000
H        1.20840000       2.72210000       0.84100000
