20
Properties=species:S:1:pos:R:3 gdb_63833=T pbc="F F F"
C       -0.13200000       1.56900000       0.03670000
C       -0.00050000       0.04820000       0.01240000
C       -1.35890000      -0.60880000      -0.24400000
C        1.11520000      -0.53940000      -0.92200000
C        1.77580000      -1.24560000       0.29290000
N        2.78500000      -0.45760000       1.00430000
C        1.88430000       0.19630000       1.82830000
O        2.01750000       1.08130000       2.63040000
C        0.71020000      -0.62060000       1.24980000
H        0.82540000       2.06110000       0.22710000
H       -0.51490000       1.93260000      -0.92400000
H       -0.82760000       1.89160000       0.81900000
H       -1.76300000      -0.29690000      -1.21380000
H       -1.28460000      -1.70170000      -0.24830000
H       -2.08140000      -0.32520000       0.52960000
H        0.72910000      -1.22660000      -1.67930000
H        1.75730000       0.19600000      -1.41360000
H        1.98900000      -2.31300000       0.23070000
H        3.69950000      -0.15050000       0.69960000
H        0.09460000      -1.18640000       1.94760000
