20
Properties=species:S:1:pos:R:3 gdb_5874=T pbc="F F F"
C       -0.07350000       1.59090000       0.06310000
C        0.01390000       0.06210000      -0.09040000
C        0.92590000      -0.52590000       1.00000000
C       -1.39130000      -0.55720000       0.01210000
C        0.56530000      -0.28730000      -1.48220000
O        1.86600000       0.28110000      -1.68790000
C        2.89300000      -0.54010000      -1.96970000
O        4.00540000      -0.14720000      -2.15390000
H        0.90970000       2.05390000      -0.05390000
H       -0.74310000       2.02570000      -0.68740000
H       -0.46210000       1.85650000       1.05150000
H        0.52420000      -0.30700000       1.99440000
H        1.00700000      -1.61520000       0.90800000
H        1.93320000      -0.10320000       0.94740000
H       -2.05820000      -0.16920000      -0.76590000
H       -1.35870000      -1.64840000      -0.08400000
H       -1.84190000      -0.32310000       0.98160000
H        0.61470000      -1.37700000      -1.61200000
H       -0.08600000       0.11970000      -2.26360000
H        2.59010000      -1.60530000      -2.01220000
