17
Properties=species:S:1:pos:R:3 gdb_29478=T pbc="F F F"
C       -0.01910000       1.50880000       0.08990000
C       -0.00690000       0.01550000       0.02340000
C       -0.02590000      -0.78520000      -1.06840000
C       -0.00320000      -2.26320000      -0.69540000
C        0.03260000      -2.20330000       0.80470000
C        0.02900000      -0.88820000       1.16210000
O        0.06010000      -0.72330000       2.50260000
C        0.08380000      -1.99770000       3.01710000
C        0.06940000      -2.93960000       2.02590000
H        0.86960000       1.88920000       0.60690000
H       -0.04780000       1.94810000      -0.91020000
H       -0.88820000       1.87290000       0.65020000
H       -0.05390000      -0.44100000      -2.09440000
H       -0.88620000      -2.78620000      -1.08570000
H        0.86960000      -2.76990000      -1.12820000
H        0.10990000      -2.05960000       4.09220000
H        0.08320000      -4.00790000       2.17840000
