18
Properties=species:S:1:pos:R:3 gdb_80190=T pbc="F F F"
C       -0.47910000       1.33340000      -0.05530000
N        0.00310000      -0.03260000       0.09770000
C        1.34560000      -0.46010000      -0.25400000
C        2.45380000       0.57380000      -0.42280000
C        2.43380000       1.35690000       0.88410000
O        2.83810000       2.47510000       1.08760000
C        1.70430000       0.53490000       1.95760000
O        0.99050000       1.36180000       2.84220000
C        0.86670000      -0.46250000       1.18000000
H        0.25200000       2.12980000       0.13430000
H       -0.85350000       1.45350000      -1.07690000
H       -1.31280000       1.48120000       0.63580000
H        1.40810000      -1.37170000      -0.84170000
H        3.42470000       0.07480000      -0.53610000
H        2.33680000       1.24670000      -1.27720000
H        2.48140000      -0.04170000       2.49750000
H        1.46440000       2.20680000       2.84920000
H        0.56130000      -1.37110000       1.69130000
