14
Properties=species:S:1:pos:R:3 gdb_35594=T pbc="F F F"
C       -0.36030000      -1.24130000      -0.25130000
C       -0.12100000      -0.07210000      -0.11470000
C        0.12330000       1.34940000       0.06750000
C       -0.46160000       1.94450000       1.39340000
N        0.69610000       2.46240000       2.12140000
C        1.71490000       2.22840000       1.39550000
O        1.54990000       1.60920000       0.18920000
C        3.05940000       2.56320000       1.72310000
C        4.19670000       2.84330000       1.98850000
H       -0.56330000      -2.27640000      -0.37720000
H       -0.22300000       1.90230000      -0.81150000
H       -1.17460000       2.75110000       1.19630000
H       -0.97330000       1.18260000       1.98810000
H        5.20050000       3.09350000       2.23090000
