18
Properties=species:S:1:pos:R:3 gdb_119763=T pbc="F F F"
N       -0.48430000       2.06730000       0.53010000
H       -0.78410000       1.86930000      -0.42060000
H        0.43860000       2.48310000       0.45450000
H       -2.45660000       3.20610000       1.88170000
C       -0.41400000       0.82140000       1.29980000
C       -1.81930000       0.25600000       1.58080000
C       -2.67050000       1.11380000       2.46270000
C       -3.23010000       2.46930000       2.11770000
C       -3.99130000       2.85870000       3.38020000
O       -4.61800000       3.84160000       3.63410000
O       -3.85160000       1.82430000       4.29230000
C       -3.07540000       0.83860000       3.70180000
H       -2.90490000      -0.02570000       4.32740000
H        0.18160000       0.03200000       0.81100000
H        0.07530000       1.04440000       2.25470000
H       -2.32450000       0.09080000       0.61730000
H       -1.70590000      -0.73280000       2.04060000
H       -3.91820000       2.45900000       1.26360000
