16
Properties=species:S:1:pos:R:3 gdb_26584=T pbc="F F F"
C        0.02720000       1.54910000       0.02260000
C        0.02230000       0.04470000       0.00500000
C       -1.15580000      -0.65220000       0.04260000
N       -2.41270000      -0.08260000       0.13890000
C       -1.16920000      -2.11500000       0.03130000
O       -2.17550000      -2.78750000       0.04690000
O        0.05360000      -2.74220000      -0.00490000
C        1.21560000      -2.04660000      -0.04230000
C        1.24410000      -0.70230000      -0.04200000
H        1.03750000       1.94390000       0.15210000
H       -0.37070000       1.96770000      -0.91210000
H       -0.59800000       1.93320000       0.83730000
H       -2.54260000       0.81110000      -0.30900000
H       -3.15150000      -0.75000000      -0.04060000
H        2.07520000      -2.70170000      -0.07170000
H        2.19820000      -0.19080000      -0.07210000
