17
Properties=species:S:1:pos:R:3 gdb_28708=T pbc="F F F"
C       -0.45980000       1.37560000       0.30530000
C        0.02510000       0.00370000      -0.02000000
C        0.88560000      -0.47300000      -0.97770000
N        1.02750000      -1.83840000      -0.88500000
C        0.25990000      -2.19560000       0.12180000
C        0.09160000      -3.60350000       0.60130000
C       -0.82580000      -3.84680000       1.77180000
O       -1.45440000      -3.01050000       2.37750000
N       -0.36730000      -1.11880000       0.67780000
H       -0.19190000       1.67850000       1.32490000
H       -0.01270000       2.09740000      -0.38220000
H       -1.54960000       1.46190000       0.21470000
H        1.41050000       0.09730000      -1.72980000
H       -0.26360000      -4.24850000      -0.21690000
H        1.06700000      -4.03740000       0.86930000
H       -0.89400000      -4.91670000       2.06450000
H       -0.99850000      -1.18850000       1.46250000
