23
Properties=species:S:1:pos:R:3 gdb_59579=T pbc="F F F"
C        0.01690000       1.53060000      -0.07300000
C        0.00440000       0.00250000      -0.00140000
O        0.78640000      -0.47500000       1.09360000
C       -1.40970000      -0.56420000       0.05210000
C       -2.31920000      -0.47980000      -1.21450000
C       -2.70920000      -1.97640000      -1.03650000
C       -1.90780000      -2.96350000      -1.91740000
C       -0.76350000      -2.97470000      -0.85760000
C       -1.62760000      -2.10080000       0.09880000
H        1.04480000       1.90200000      -0.10520000
H       -0.51180000       1.89190000      -0.96120000
H       -0.47610000       1.96360000       0.80680000
H        0.51690000      -0.39150000      -0.88750000
H        0.36940000      -0.16260000       1.90440000
H       -1.92770000      -0.10700000       0.90690000
H       -3.14200000       0.23560000      -1.14780000
H       -1.77500000      -0.28000000      -2.14460000
H       -3.76980000      -2.17740000      -0.87880000
H       -2.39530000      -3.93730000      -2.01700000
H       -1.65080000      -2.60920000      -2.92090000
H       -0.53660000      -3.96560000      -0.45820000
H        0.18080000      -2.52710000      -1.17540000
H       -1.83220000      -2.53720000       1.07730000
