12
Properties=species:S:1:pos:R:3 gdb_1825=T pbc="F F F"
N       -0.05640000       1.26570000      -0.12970000
C       -0.03950000       0.01530000      -0.01890000
C       -1.24300000      -0.89950000       0.06460000
C       -0.64800000      -2.30520000      -0.06690000
C        0.85270000      -2.09820000       0.07310000
O        1.72190000      -2.90590000       0.16690000
O        1.12180000      -0.74060000       0.05970000
H        0.88970000       1.64880000      -0.15290000
H       -1.73430000      -0.74940000       1.03030000
H       -1.96670000      -0.64190000      -0.70950000
H       -0.98860000      -3.01910000       0.68490000
H       -0.83280000      -2.75640000      -1.04670000
