13
Properties=species:S:1:pos:R:3 gdb_3040=T pbc="F F F"
O       -0.13430000       0.02810000       0.34920000
C        0.01510000       1.13940000      -0.10940000
C        1.24590000       1.87680000      -0.09050000
C        2.26680000       2.52780000      -0.09250000
C        3.47830000       3.27810000      -0.08470000
C        3.80270000       4.20440000      -1.25450000
C        3.42680000       4.79720000       0.06290000
H       -0.82510000       1.67990000      -0.59320000
H        4.32570000       2.78360000       0.37960000
H        4.83980000       4.23970000      -1.56720000
H        3.08110000       4.24550000      -2.06110000
H        2.44630000       5.24610000       0.16320000
H        4.20030000       5.24790000       0.67370000
