18
Properties=species:S:1:pos:R:3 gdb_84210=T pbc="F F F"
C       -0.12610000       1.57060000      -0.06230000
C       -0.03430000       0.04970000      -0.03230000
C        0.80010000      -0.49070000      -1.21270000
C        1.59230000      -1.43770000      -0.67700000
C        2.89550000      -1.17100000       0.02150000
C        2.47660000      -1.79810000       1.31630000
C        2.19350000      -0.33030000       1.25290000
N        0.71570000      -0.48840000       1.18010000
C        1.04580000      -1.87050000       0.72230000
H        0.86330000       2.02310000      -0.19000000
H       -0.76060000       1.90610000      -0.88780000
H       -0.55120000       1.93730000       0.87630000
H       -1.04160000      -0.37510000       0.06680000
H        1.11660000       0.17990000      -2.00730000
H        3.87630000      -0.87220000      -0.32610000
H        2.99180000      -2.40500000       2.04720000
H        2.69430000       0.51420000       1.70830000
H        0.31070000      -2.66420000       0.84890000
