19
Properties=species:S:1:pos:R:3 gdb_70541=T pbc="F F F"
C        0.07160000       1.35190000      -0.22410000
C       -0.06880000      -0.11060000       0.11240000
C       -0.85290000      -0.57500000       1.30620000
C        0.65390000      -0.75100000       1.26670000
C        1.28490000      -2.10610000       0.98550000
C        1.82130000      -2.10380000      -0.45400000
C        0.72270000      -1.79320000      -1.45610000
O        0.62460000      -2.30880000      -2.53460000
O       -0.22730000      -0.89730000      -1.06390000
H        0.97530000       1.53420000      -0.81550000
H       -0.78940000       1.69550000      -0.80580000
H        0.13220000       1.95100000       0.68880000
H       -1.27300000       0.17430000       1.96820000
H       -1.46130000      -1.46400000       1.17760000
H        1.23900000      -0.07780000       1.88610000
H        2.09300000      -2.31290000       1.69260000
H        0.55300000      -2.91240000       1.10300000
H        2.60360000      -1.34040000      -0.55310000
H        2.25860000      -3.05870000      -0.75090000
