15
Properties=species:S:1:pos:R:3 gdb_87093=T pbc="F F F"
O        0.06510000       1.37490000       0.07260000
C        0.07630000      -0.00580000       0.11310000
C       -0.47930000      -0.76170000       1.28350000
C       -1.26330000      -0.73180000      -0.03700000
O       -2.32570000       0.18240000      -0.11950000
C       -1.37100000      -1.91470000      -0.82580000
C       -1.48300000      -2.92270000      -1.48760000
C       -1.57630000      -4.12730000      -2.26370000
O       -2.54110000      -4.45140000      -2.91940000
H       -0.86300000       1.64880000       0.06550000
H        0.92800000      -0.42740000      -0.40960000
H       -0.01960000      -1.69880000       1.57520000
H       -0.91610000      -0.17660000       2.08600000
H       -3.07670000      -0.16590000       0.37380000
H       -0.66800000      -4.76280000      -2.21530000
