16
Properties=species:S:1:pos:R:3 gdb_45070=T pbc="F F F"
O       -0.02510000      -0.01250000      -0.16110000
C       -0.04900000       1.16320000       0.06110000
C       -1.30370000       2.00860000       0.32890000
C       -0.77930000       3.28740000       0.93920000
N        0.07970000       3.02180000       2.11030000
C        0.70370000       3.33840000       0.81670000
C        1.20370000       2.10010000       0.08780000
C        2.39600000       1.48010000       0.63520000
C        3.38840000       0.97790000       1.08820000
H       -1.81250000       2.19320000      -0.62600000
H       -1.99090000       1.45520000       0.97360000
H       -1.37440000       4.19370000       0.90850000
H        0.11160000       3.83540000       2.71860000
H        1.23660000       4.27460000       0.69320000
H        1.38520000       2.36850000      -0.96560000
H        4.25840000       0.52390000       1.49340000
