18
Properties=species:S:1:pos:R:3 gdb_43079=T pbc="F F F"
O       -0.02410000       0.01510000      -0.00220000
C       -0.02610000       1.21720000       0.00300000
C       -1.25450000       2.15040000      -0.00760000
C       -1.52390000       2.62920000       1.43880000
C       -0.38530000       3.63170000       1.16140000
C        1.01530000       2.98780000       1.34540000
C        1.16190000       2.18540000       0.02240000
C        0.62390000       3.23330000      -0.97430000
N       -0.67880000       3.50570000      -0.32690000
H       -2.07410000       1.79350000      -0.63390000
H       -2.49720000       3.11500000       1.52540000
H       -1.39200000       1.90820000       2.24800000
H       -0.46470000       4.64150000       1.56740000
H        1.79980000       3.74910000       1.40230000
H        1.08120000       2.36770000       2.24330000
H        2.12920000       1.71970000      -0.15610000
H        1.23200000       4.14120000      -1.02810000
H        0.47110000       2.84820000      -1.98760000
