19
Properties=species:S:1:pos:R:3 gdb_99578=T pbc="F F F"
C       -0.05910000       1.60210000       0.04080000
C       -0.02350000       0.07460000      -0.01640000
C        0.73710000      -0.47250000      -1.24710000
C        2.15010000      -0.10090000      -1.22120000
C        3.31830000       0.18120000      -1.16910000
C        0.57630000      -2.02230000      -1.33750000
O       -0.77450000      -2.38180000      -1.34470000
C        1.26100000      -2.57450000      -2.57580000
O        0.64310000      -3.21600000      -3.39280000
H        0.94990000       2.02300000       0.08180000
H       -0.56150000       2.01990000      -0.83880000
H       -0.60400000       1.94220000       0.92650000
H        0.44880000      -0.32580000       0.88880000
H       -1.03790000      -0.33060000      -0.05720000
H        0.27130000      -0.05140000      -2.14930000
H        4.34700000       0.44390000      -1.13570000
H        1.09210000      -2.45570000      -0.46220000
H       -0.90260000      -2.88700000      -2.16490000
H        2.33830000      -2.35880000      -2.68920000
