14
Properties=species:S:1:pos:R:3 gdb_1905=T pbc="F F F"
C        0.06430000       1.47480000      -0.03220000
C        0.03330000      -0.01070000       0.07720000
C       -0.89790000      -0.88930000       0.83230000
C        0.61760000      -1.01220000       1.05530000
C        1.20470000      -1.64410000      -0.15980000
N        2.02160000      -2.56870000      -0.37870000
O        0.56740000      -0.77680000      -1.04910000
H        1.07310000       1.82810000      -0.26470000
H       -0.61120000       1.81700000      -0.82370000
H       -0.25900000       1.92950000       0.90840000
H       -1.42450000      -0.42430000       1.66050000
H       -1.44010000      -1.67880000       0.32150000
H        1.08820000      -0.89400000       2.02000000
H        2.20090000      -2.67050000      -1.37910000
