23
Properties=species:S:1:pos:R:3 gdb_101179=T pbc="F F F"
C        0.09330000       1.56020000      -0.20740000
C       -0.08690000       0.04020000      -0.14410000
C       -1.55380000      -0.43800000      -0.13760000
C       -2.29520000      -0.07720000      -1.43530000
C       -1.59880000      -1.94840000       0.07720000
C       -1.34190000      -2.64900000       1.44570000
C       -2.72870000      -2.19950000       1.96550000
C       -2.86960000      -2.73380000       0.51980000
O       -1.98630000      -3.86430000       0.89340000
H        1.15190000       1.82960000      -0.14090000
H       -0.29230000       1.98080000      -1.14100000
H       -0.42730000       2.05550000       0.62010000
H        0.43540000      -0.42770000      -0.98980000
H        0.40680000      -0.33720000       0.76040000
H       -2.06220000       0.06900000       0.69250000
H       -3.33130000      -0.42970000      -1.40900000
H       -2.31990000       1.00310000      -1.60240000
H       -1.80970000      -0.53930000      -2.30310000
H       -1.08100000      -2.47560000      -0.73140000
H       -0.40890000      -2.78630000       1.99410000
H       -3.15700000      -2.84640000       2.73190000
H       -2.90640000      -1.14060000       2.16120000
H       -3.77200000      -2.97260000      -0.04470000
