17
Properties=species:S:1:pos:R:3 gdb_28440=T pbc="F F F"
C       -0.07100000       1.53450000      -0.01720000
C       -0.01420000       0.02590000      -0.00920000
C       -0.12230000      -0.70780000      -1.18850000
C       -0.06840000      -2.10380000      -1.17050000
C        0.09420000      -2.77510000       0.02970000
O        0.16020000      -4.14200000       0.16260000
C        0.20480000      -2.05180000       1.22770000
O        0.36480000      -2.70400000       2.41100000
C        0.15000000      -0.66640000       1.19750000
H        0.84700000       1.97350000       0.39040000
H       -0.20240000       1.92030000      -1.03160000
H       -0.90150000       1.90870000       0.59240000
H       -0.25000000      -0.19330000      -2.13510000
H       -0.15360000      -2.66800000      -2.09580000
H        0.07630000      -4.55540000      -0.70150000
H        0.37790000      -3.65030000       2.21970000
H        0.23800000      -0.13170000       2.13790000
