18
Properties=species:S:1:pos:R:3 gdb_13254=T pbc="F F F"
O        0.09030000       0.07750000       0.81090000
C        0.14440000       1.14020000       0.25180000
C        1.43790000       1.77700000      -0.22570000
O        1.11920000       2.97600000      -0.88480000
C        2.24020000       3.70240000      -1.32340000
C        3.01700000       3.21600000      -2.58030000
C        3.08020000       4.70110000      -3.03530000
C        1.90590000       5.00950000      -2.06490000
H       -0.75780000       1.75500000       0.03850000
H        2.08850000       1.94860000       0.64980000
H        1.96360000       1.06320000      -0.88020000
H        2.92840000       3.87700000      -0.48120000
H        3.95580000       2.67620000      -2.43840000
H        2.35520000       2.62870000      -3.22400000
H        4.00880000       5.18490000      -2.72120000
H        2.92320000       4.90790000      -4.09510000
H        0.93720000       4.91090000      -2.56250000
H        1.92380000       5.94110000      -1.49580000
