14
Properties=species:S:1:pos:R:3 gdb_24179=T pbc="F F F"
C       -0.00810000       1.31790000       0.01000000
C        1.27800000       1.80360000      -0.00010000
N        2.08320000       0.68430000      -0.01450000
C        3.44100000       0.51590000      -0.02900000
N        4.00740000      -0.64870000      -0.04130000
C        3.20020000      -1.75590000      -0.03960000
C        1.83350000      -1.69820000      -0.02560000
C        1.21830000      -0.42920000      -0.01220000
N       -0.04790000      -0.04860000       0.00260000
H       -0.91770000       1.90090000       0.02240000
H        1.68530000       2.80030000       0.00150000
H        4.03880000       1.42260000      -0.02980000
H        3.71900000      -2.70830000      -0.05020000
H        1.21450000      -2.58600000      -0.02450000
