18
Properties=species:S:1:pos:R:3 gdb_43630=T pbc="F F F"
O        0.07790000      -0.05300000       0.24050000
C       -0.00110000       1.13670000       0.10490000
C       -1.14050000       2.18440000       0.04110000
C       -0.00570000       3.24930000      -0.07000000
N        0.94450000       2.12610000      -0.04260000
C        0.02920000       4.09890000      -1.32650000
C       -0.89790000       5.33680000      -1.31270000
O        0.22630000       6.23800000      -1.27100000
C        1.16170000       5.15070000      -1.40760000
H       -1.78520000       2.09640000      -0.83590000
H       -1.75120000       2.23400000       0.94370000
H        0.07060000       3.89060000       0.81760000
H        1.95120000       2.09490000       0.03000000
H       -0.06280000       3.45920000      -2.20760000
H       -1.50440000       5.47590000      -2.21620000
H       -1.54410000       5.44270000      -0.43180000
H        1.89580000       5.13490000      -0.59070000
H        1.69800000       5.18660000      -2.36420000
