14
Properties=species:S:1:pos:R:3 gdb_5792=T pbc="F F F"
C        0.93410000       1.01600000      -0.09140000
O        0.06280000       0.17140000      -0.84270000
C       -0.39260000       0.63830000       0.43080000
C       -0.56640000      -0.38970000       1.47620000
C       -0.18330000      -1.70660000       1.43580000
N       -0.57090000      -2.22960000       2.64920000
C       -1.16630000      -1.22630000       3.35330000
N       -1.18310000      -0.10260000       2.67500000
H        1.81780000       0.53010000       0.31900000
H        1.09050000       2.01230000      -0.50350000
H       -1.18150000       1.38890000       0.39430000
H        0.29440000      -2.29700000       0.67350000
H       -0.45600000      -3.18370000       2.94720000
H       -1.56720000      -1.37550000       4.34470000
