17
Properties=species:S:1:pos:R:3 gdb_41289=T pbc="F F F"
C        0.05280000       1.51770000      -0.03880000
O        1.52760000       1.52010000      -0.00840000
C        1.53730000       0.19590000       0.55040000
C        1.68760000      -0.28530000       1.98130000
C        0.89770000      -1.48150000       1.37280000
O       -0.41960000      -0.90020000       1.12300000
C        0.07590000      -0.00530000       0.13160000
C        0.52370000      -0.93510000      -1.03060000
C        1.64840000      -1.26020000      -0.04170000
H       -0.36000000       2.06850000       0.81360000
H       -0.32990000       1.92110000      -0.98010000
H        2.71620000      -0.55400000       2.23770000
H        1.19950000       0.25410000       2.79590000
H        0.82330000      -2.45600000       1.84930000
H       -0.17540000      -1.71710000      -1.33270000
H        0.89420000      -0.37830000      -1.89340000
H        2.54770000      -1.84530000      -0.23780000
