20
Properties=species:S:1:pos:R:3 gdb_77956=T pbc="F F F"
C       -0.01020000       1.53680000      -0.44430000
C        0.10740000       0.01940000      -0.31810000
C        1.32750000      -0.85050000      -0.79410000
C        2.13620000      -0.43230000       0.47600000
C        2.89290000       0.88950000       0.57650000
C        0.66310000      -0.68540000       0.96180000
C        0.74250000      -1.99790000       0.10390000
C       -0.48240000      -2.67330000      -0.29160000
N       -1.43980000      -3.24610000      -0.59720000
H        0.21710000       1.86850000      -1.46360000
H       -1.04340000       1.83240000      -0.23520000
H        0.62420000       2.09520000       0.24280000
H       -0.83730000      -0.41550000      -0.65730000
H        1.70040000      -0.97650000      -1.81220000
H        2.80470000      -1.22750000       0.82640000
H        2.85460000       1.29160000       1.59520000
H        3.94780000       0.71490000       0.34070000
H        2.53880000       1.66070000      -0.10540000
H        0.27680000      -0.62230000       1.98080000
H        1.47300000      -2.73460000       0.44600000
