19
Properties=species:S:1:pos:R:3 gdb_88795=T pbc="F F F"
C        0.07330000       1.54350000      -0.32320000
C       -0.08040000       0.09580000       0.07270000
N        1.09040000      -0.79670000      -0.03820000
C        0.50130000      -0.54740000       1.28380000
C        1.36660000       0.09220000       2.34760000
C        2.36640000      -0.86140000       3.04990000
O        3.47870000      -0.01300000       2.64120000
C        2.63650000       0.85950000       1.99010000
N        2.89910000       1.92670000       1.38840000
H        1.02670000       1.95600000       0.01000000
H        0.01150000       1.63980000      -1.41290000
H       -0.73910000       2.13940000       0.10860000
H       -1.03310000      -0.34160000      -0.22980000
H        0.82090000      -1.71050000      -0.39050000
H       -0.10980000      -1.34420000       1.71220000
H        0.74410000       0.65140000       3.05320000
H        2.30420000      -0.92960000       4.13870000
H        2.45220000      -1.85620000       2.60520000
H        3.90230000       2.11690000       1.38960000
