23
Properties=species:S:1:pos:R:3 gdb_103078=T pbc="F F F"
C       -0.63040000       0.67590000      -2.72160000
C       -0.31460000      -0.32860000      -1.60570000
C       -1.55490000      -0.77200000      -0.84510000
O       -2.23230000       0.30300000      -0.24620000
C       -2.41180000      -1.95000000      -1.30580000
C       -2.17030000      -2.75740000      -2.56360000
C       -1.57070000      -2.04940000      -0.03540000
C       -0.36190000      -2.95720000       0.06040000
O       -2.26100000      -1.94860000       1.18270000
H        0.28250000       0.98750000      -3.23760000
H       -1.30580000       0.24500000      -3.46910000
H       -1.10150000       1.57590000      -2.31460000
H        0.20610000      -1.19000000      -2.03240000
H        0.37680000       0.13130000      -0.88890000
H       -2.79310000       0.70670000      -0.91620000
H       -3.46190000      -1.79480000      -1.06610000
H       -1.10760000      -2.87540000      -2.79040000
H       -2.59650000      -3.76330000      -2.47310000
H       -2.63750000      -2.28270000      -3.43400000
H        0.18870000      -3.04660000      -0.87770000
H        0.32410000      -2.58860000       0.82940000
H       -0.67560000      -3.96810000       0.35060000
H       -2.65230000      -2.81050000       1.36330000
