15
Properties=species:S:1:pos:R:3 gdb_125091=T pbc="F F F"
C       -0.00290000       1.60180000       0.05450000
C        0.03900000       0.11000000       0.01020000
C       -0.00020000      -0.72750000      -1.10140000
N        0.06510000      -2.00720000      -0.63160000
N        0.14440000      -2.06640000       0.71430000
C        0.12830000      -0.79470000       1.09070000
O        0.19240000      -0.43280000       2.38930000
C       -0.08830000      -0.42990000      -2.47640000
C       -0.16360000      -0.17920000      -3.65240000
H        0.89440000       2.01410000       0.52920000
H       -0.07370000       2.01530000      -0.95450000
H       -0.86230000       1.96170000       0.63100000
H        0.05920000      -2.85510000      -1.17070000
H        0.24680000      -1.24390000       2.91010000
H       -0.23000000       0.04560000      -4.68810000
