16
Properties=species:S:1:pos:R:3 gdb_61712=T pbc="F F F"
C       -0.00040000       1.59290000      -0.19220000
C        0.14460000       0.06580000      -0.04220000
O        0.68080000      -0.34660000       1.19900000
C       -0.00600000      -0.10300000       2.34610000
N        0.51210000      -0.44800000       3.44090000
C       -1.20450000      -0.60430000      -0.36360000
O       -1.84010000      -1.24850000       0.42330000
C        1.14440000      -0.45200000      -1.08800000
O        1.04360000      -0.20850000      -2.26020000
H        0.93960000       2.07350000       0.09090000
H       -0.21790000       1.83460000      -1.23490000
H       -0.80120000       1.98600000       0.43890000
H       -0.97030000       0.38830000       2.20110000
H       -0.10930000      -0.20720000       4.21030000
H       -1.53750000      -0.42670000      -1.40700000
H        1.94660000      -1.08310000      -0.65630000
