21
Properties=species:S:1:pos:R:3 gdb_76904=T pbc="F F F"
O        0.58600000       0.98210000      -0.56040000
C        0.12360000      -0.26170000      -0.05720000
C        0.21790000      -0.37460000       1.50080000
O        0.62530000       0.81720000       2.12490000
C       -1.31060000      -0.69750000       1.56500000
C       -2.20900000       0.38390000       2.18340000
C       -2.35590000       1.45960000       1.08890000
C       -2.35920000       0.65910000      -0.23000000
C       -1.41160000      -0.53190000       0.00480000
H       -0.17290000       1.54610000      -0.73890000
H        0.67710000      -1.04630000      -0.58130000
H        0.84840000      -1.20510000       1.84250000
H        0.95390000       1.37810000       1.40560000
H       -1.52100000      -1.69390000       1.95860000
H       -3.18840000      -0.04800000       2.41940000
H       -1.78760000       0.78900000       3.10610000
H       -3.25390000       2.07240000       1.20770000
H       -1.49390000       2.13320000       1.13060000
H       -3.36390000       0.26870000      -0.42630000
H       -2.10160000       1.26200000      -1.11140000
H       -1.71140000      -1.40840000      -0.57280000
