15
Properties=species:S:1:pos:R:3 gdb_47357=T pbc="F F F"
N       -0.01600000       1.28050000       0.45790000
C        0.04100000       0.10580000       0.01280000
O        1.20170000      -0.57290000      -0.17340000
C        1.25530000      -1.73990000      -1.00500000
C        0.02500000      -2.60310000      -0.79620000
C       -1.20000000      -1.71260000      -1.00920000
O       -1.13860000      -0.55140000      -0.18890000
C       -1.35250000      -1.33570000      -2.43120000
N       -1.45900000      -1.06230000      -3.54840000
H        0.92500000       1.63480000       0.61540000
H        1.33990000      -1.43020000      -2.05440000
H        2.17330000      -2.25780000      -0.72200000
H        0.01460000      -3.44580000      -1.49220000
H       -0.00420000      -2.99000000       0.22640000
H       -2.11620000      -2.22460000      -0.70210000
