20
Properties=species:S:1:pos:R:3 gdb_115038=T pbc="F F F"
C        0.73300000      -0.32380000      -1.33350000
C        0.03390000      -0.05920000       0.00290000
C       -1.45950000      -0.42120000      -0.01520000
C       -1.72070000      -1.95970000      -0.04070000
C       -2.30360000      -2.24570000       1.32480000
C       -2.52720000      -1.10720000       1.97950000
N       -2.13490000       0.01150000       1.23070000
C       -2.39310000       1.30210000       1.58510000
O       -2.94660000       1.64500000       2.61000000
H        1.78940000      -0.04590000      -1.28050000
H        0.68440000      -1.37910000      -1.62020000
H        0.27540000       0.25980000      -2.14030000
H        0.51950000      -0.62210000       0.80970000
H        0.13530000       1.00130000       0.26080000
H       -1.93570000       0.07290000      -0.86920000
H       -2.41240000      -2.24430000      -0.84330000
H       -0.79100000      -2.51040000      -0.22350000
H       -2.51960000      -3.23600000       1.69800000
H       -2.95540000      -0.93030000       2.95450000
H       -2.03880000       2.01890000       0.81890000
