18
Properties=species:S:1:pos:R:3 gdb_53498=T pbc="F F F"
C        0.30260000       0.73660000       1.29160000
C       -0.00110000      -0.36730000       0.38970000
C       -0.24030000      -1.25860000      -0.38700000
C       -0.56400000      -2.33510000      -1.31730000
C       -1.67400000      -3.30350000      -0.82410000
O       -2.10270000      -4.08930000      -1.89810000
C       -1.19440000      -4.24560000       0.29860000
N       -0.76700000      -3.66760000       1.44380000
O       -1.24450000      -5.45430000       0.12480000
H        1.19180000       0.52850000       1.89670000
H        0.49220000       1.65860000       0.73140000
H       -0.52890000       0.93290000       1.97720000
H       -0.92860000      -1.91320000      -2.26050000
H        0.33090000      -2.91900000      -1.56510000
H       -2.50510000      -2.69690000      -0.43200000
H       -1.96720000      -5.00590000      -1.59580000
H       -0.58310000      -2.67550000       1.47550000
H       -0.36750000      -4.26420000       2.15070000
