18
Properties=species:S:1:pos:R:3 gdb_15120=T pbc="F F F"
N       -0.04700000      -0.97940000      -0.26380000
C        0.24080000       0.08960000       0.06550000
C        0.63820000       1.43720000       0.48660000
N        0.66950000       2.34870000      -0.65070000
C        0.98260000       3.73530000      -0.29690000
C        2.38040000       3.99850000       0.23430000
C        3.53490000       4.12190000      -0.73150000
C        3.02870000       5.33930000       0.00050000
H       -0.10500000       1.80410000       1.20600000
H        1.58870000       1.34300000       1.04030000
H        1.33810000       2.01010000      -1.33590000
H        0.82470000       4.34090000      -1.19760000
H        0.23310000       4.06630000       0.43410000
H        2.60870000       3.53000000       1.18820000
H        4.49670000       3.71020000      -0.44710000
H        3.31920000       4.04750000      -1.79330000
H        2.47240000       6.07670000      -0.56940000
H        3.64160000       5.76080000       0.78920000
