17
Properties=species:S:1:pos:R:3 gdb_68711=T pbc="F F F"
C       -0.02520000       1.52090000       0.09820000
C       -0.02470000       0.02380000       0.00820000
C        1.16590000      -0.81140000      -0.36750000
C        0.59260000      -0.99050000       1.03210000
C        1.32440000      -0.70550000       2.21760000
C        1.93980000      -0.46860000       3.22480000
C       -0.68560000      -1.80590000       0.93100000
O       -1.80580000      -0.98350000       1.27850000
C       -1.25860000      -0.86040000      -0.04060000
H        0.93880000       1.89060000       0.46030000
H       -0.21430000       1.97770000      -0.88010000
H       -0.80020000       1.86120000       0.79160000
H        1.07370000      -1.62310000      -1.08440000
H        2.11660000      -0.28840000      -0.40660000
H        2.47670000      -0.26200000       4.11690000
H       -0.80800000      -2.87840000       1.02230000
H       -1.92520000      -1.04610000      -0.87470000
