18
Properties=species:S:1:pos:R:3 gdb_51613=T pbc="F F F"
N        0.64960000       1.03300000      -0.15310000
C        0.29110000      -0.16520000       0.01000000
O       -0.98750000      -0.52530000      -0.22070000
C       -1.36610000      -1.84740000       0.11710000
C       -2.09770000      -2.04630000       1.47640000
C       -3.11970000      -2.89270000       0.71210000
C       -3.63250000      -4.22600000       1.02760000
O       -4.47170000      -3.06040000       1.07510000
C       -2.62770000      -2.34140000      -0.62950000
H        1.64510000       1.12630000       0.03700000
H        0.93120000      -1.00290000       0.32230000
H       -0.51470000      -2.52690000      -0.00130000
H       -1.54610000      -2.50660000       2.29900000
H       -2.53780000      -1.10200000       1.80970000
H       -3.85530000      -4.92680000       0.22370000
H       -3.41120000      -4.67930000       1.99320000
H       -3.23160000      -1.48770000      -0.94970000
H       -2.49430000      -3.03040000      -1.46560000
