13
Properties=species:S:1:pos:R:3 gdb_23659=T pbc="F F F"
N       -0.01040000       1.40570000       0.15670000
C        0.02110000       0.02080000       0.05240000
C       -1.16700000      -0.73170000       0.02840000
N       -1.20300000      -2.05850000      -0.01300000
C       -0.05180000      -2.73260000      -0.03500000
C        1.16720000      -2.06760000      -0.01720000
F        2.30290000      -2.77050000      -0.04500000
C        1.22740000      -0.68620000       0.02590000
H        0.80330000       1.88970000      -0.19240000
H       -0.86930000       1.84020000      -0.14690000
H       -2.12640000      -0.21730000       0.04600000
H       -0.08810000      -3.81670000      -0.06960000
H        2.18810000      -0.18340000       0.04250000
