20
Properties=species:S:1:pos:R:3 gdb_46980=T pbc="F F F"
N       -0.07600000       1.29710000      -0.21610000
C       -0.00090000       0.05810000       0.03380000
O        1.20810000      -0.55870000       0.21960000
C        1.28820000      -1.80730000       0.93230000
C        0.02430000      -2.65850000       0.82600000
C       -0.30760000      -3.01140000      -0.64450000
C       -1.16700000      -1.81800000      -1.15460000
C       -1.22380000      -0.82900000       0.04280000
C       -1.16230000      -1.77760000       1.25400000
H        0.85870000       1.71210000      -0.19820000
H        2.15530000      -2.32610000       0.51190000
H        1.50430000      -1.58230000       1.98590000
H        0.16160000      -3.54520000       1.45210000
H        0.59890000      -3.15450000      -1.23950000
H       -0.87140000      -3.94720000      -0.69160000
H       -0.75400000      -1.34870000      -2.05020000
H       -2.18200000      -2.14410000      -1.39940000
H       -2.09850000      -0.18030000       0.01550000
H       -2.08730000      -2.35770000       1.33650000
H       -0.99790000      -1.26210000       2.20560000
