19
Properties=species:S:1:pos:R:3 gdb_11894=T pbc="F F F"
C       -0.04550000       1.50310000       0.03520000
C       -0.02300000       0.00870000       0.00230000
C       -0.31390000      -0.78660000      -1.03180000
C       -0.14040000      -2.22370000      -0.70390000
C       -0.78920000      -3.31130000      -1.47780000
N        0.66690000      -3.10730000      -1.58120000
C        0.11030000      -2.27370000       0.80820000
C        0.38990000      -0.80340000       1.21540000
H        0.94150000       1.90580000       0.29800000
H       -0.34040000       1.92770000      -0.92830000
H       -0.74210000       1.87280000       0.79870000
H       -0.61350000      -0.44770000      -2.01920000
H       -1.08440000      -4.22870000      -0.97340000
H       -1.42190000      -3.03980000      -2.32030000
H        0.88680000      -2.62120000      -2.44860000
H       -0.78190000      -2.64500000       1.32230000
H        0.93380000      -2.95120000       1.04280000
H        1.44950000      -0.62810000       1.44810000
H       -0.16720000      -0.50820000       2.11300000
