18
Properties=species:S:1:pos:R:3 gdb_93115=T pbc="F F F"
C       -0.04080000       1.54440000      -0.02470000
C        0.04740000       0.01910000      -0.00370000
C        0.69140000      -0.56650000      -1.26520000
N        0.93070000      -2.00410000      -1.18220000
C        0.96680000      -2.53480000      -0.03820000
O        0.84370000      -1.96180000       1.19130000
C        0.82050000      -0.51860000       1.21730000
C        2.18650000      -0.00190000       1.31480000
C        3.30580000       0.42820000       1.39260000
H        0.95430000       1.99500000      -0.08460000
H       -0.61970000       1.88030000      -0.89070000
H       -0.53260000       1.93020000       0.87470000
H       -0.96390000      -0.39800000       0.08550000
H        0.05130000      -0.37910000      -2.13460000
H        1.64600000      -0.06320000      -1.47020000
H        1.10390000      -3.60810000       0.07930000
H        0.28040000      -0.27040000       2.13710000
H        4.29740000       0.80170000       1.46870000
