19
Properties=species:S:1:pos:R:3 gdb_70492=T pbc="F F F"
C       -0.02650000       1.54330000      -0.01340000
C        0.04470000       0.03610000      -0.00630000
C       -0.82630000      -0.78780000       0.92160000
C        0.67240000      -0.79480000       1.10280000
C        1.46860000      -1.92940000       0.46180000
C        1.16720000      -1.78390000      -1.01000000
C        0.41540000      -0.70010000      -1.27270000
C       -0.02440000      -0.27060000      -2.54870000
C       -0.41590000       0.13500000      -3.61430000
H        0.92310000       1.98670000      -0.33300000
H       -0.80440000       1.89650000      -0.69880000
H       -0.25890000       1.92570000       0.98510000
H       -1.40550000      -0.24910000       1.66540000
H       -1.31380000      -1.67220000       0.52340000
H        1.07600000      -0.30850000       1.98370000
H        2.54560000      -1.83080000       0.65700000
H        1.17970000      -2.91760000       0.84420000
H        1.50620000      -2.49100000      -1.75760000
H       -0.75400000       0.47860000      -4.56020000
