17
Properties=species:S:1:pos:R:3 gdb_4120=T pbc="F F F"
C       -0.30410000       1.23160000      -1.37380000
C        0.24460000      -0.11060000      -0.92310000
O        1.64790000      -0.30520000      -1.25850000
C        2.02650000      -0.56420000       0.12310000
C        3.11470000       0.36230000       0.63350000
C        0.59640000      -0.30270000       0.53550000
N        0.03680000      -0.25650000       1.66590000
O       -1.33450000       0.03920000       1.54120000
H        0.28540000       2.05380000      -0.95960000
H       -0.27230000       1.29710000      -2.46560000
H       -1.34050000       1.33940000      -1.04280000
H       -0.36960000      -0.92960000      -1.32490000
H        2.32660000      -1.61450000       0.24900000
H        2.81660000       1.40870000       0.52890000
H        3.31440000       0.15780000       1.69000000
H        4.03750000       0.20290000       0.06760000
H       -1.62530000       0.04920000       2.45950000
