19
Properties=species:S:1:pos:R:3 gdb_8914=T pbc="F F F"
C       -0.04440000       1.57020000       0.08960000
C       -0.02150000       0.04230000      -0.00010000
C        0.73230000      -0.48090000      -1.23540000
N        2.15630000      -0.14700000      -1.28570000
C        0.60460000      -2.02250000      -1.35430000
N       -0.79800000      -2.44670000      -1.36410000
C        1.34640000      -2.51680000      -2.53510000
N        1.83310000      -2.96490000      -3.48350000
H        0.96550000       1.98940000       0.14840000
H       -0.53780000       2.01090000      -0.78440000
H       -0.58940000       1.90150000       0.97820000
H        0.45560000      -0.37590000       0.89850000
H       -1.04190000      -0.35050000      -0.01450000
H        0.27480000      -0.05020000      -2.13710000
H        2.28850000       0.83360000      -1.50440000
H        2.58960000      -0.30550000      -0.37950000
H        1.07540000      -2.46260000      -0.46540000
H       -1.23330000      -2.15900000      -2.23700000
H       -0.85190000      -3.46050000      -1.34390000
