21
Properties=species:S:1:pos:R:3 gdb_93816=T pbc="F F F"
C       -0.04930000       1.54670000       0.07970000
C       -0.03650000       0.04520000      -0.01440000
C       -0.04930000      -0.61110000      -1.17930000
C       -0.01550000      -2.11140000      -1.33420000
O        0.75300000      -2.49770000      -2.47220000
C        0.45990000      -2.79450000      -0.04900000
C       -0.26000000      -2.19590000       1.16310000
C        0.03400000      -0.69630000       1.30880000
O        1.29770000      -0.45150000       1.94360000
H        0.78590000       1.89640000       0.69600000
H        0.01590000       2.01710000      -0.90470000
H       -0.96700000       1.90090000       0.56730000
H       -0.09350000      -0.05770000      -2.11630000
H       -1.02800000      -2.46900000      -1.57140000
H        1.64030000      -2.14020000      -2.35440000
H        0.30250000      -3.87460000      -0.11910000
H        1.54550000      -2.64380000       0.04760000
H       -1.34280000      -2.33520000       1.04600000
H        0.03280000      -2.69830000       2.08970000
H       -0.69130000      -0.25730000       2.00470000
H        1.98620000      -0.68510000       1.31170000
