8
Properties=species:S:1:pos:R:3 gdb_3898=T pbc="F F F"
O       -0.00720000      -0.02890000       0.00330000
C       -0.06970000       1.17040000       0.01050000
C       -1.27080000       1.97890000       0.03090000
N       -1.27480000       3.27190000       0.03810000
O       -0.10200000       3.91330000       0.02600000
N        1.20050000       3.15760000       0.00390000
N        1.16610000       1.94400000      -0.00240000
H       -2.24230000       1.49610000       0.04110000
