21
Properties=species:S:1:pos:R:3 gdb_64282=T pbc="F F F"
C        0.02960000       1.56900000       0.02290000
C       -0.00080000       0.04470000      -0.00030000
O       -1.37290000      -0.34480000      -0.04370000
C        0.69030000      -0.50620000      -1.25470000
O        0.47900000      -1.91090000      -1.36030000
C        0.87960000      -2.66650000      -0.24470000
C        2.21830000      -2.51040000       0.41620000
C        0.95210000      -2.04720000       1.12740000
C        0.67440000      -0.54980000       1.25860000
H        1.05680000       1.94650000       0.01450000
H       -0.50190000       1.97200000      -0.84390000
H       -0.46520000       1.94090000       0.92530000
H       -1.39360000      -1.22140000      -0.44750000
H        0.23890000      -0.07890000      -2.15420000
H        1.76240000      -0.26210000      -1.25670000
H        0.47850000      -3.66890000      -0.34860000
H        2.71800000      -3.40830000       0.76320000
H        2.89330000      -1.73910000       0.06010000
H        0.61160000      -2.66130000       1.95450000
H        1.60350000      -0.00710000       1.47130000
H       -0.00130000      -0.36940000       2.09920000
