17
Properties=species:S:1:pos:R:3 gdb_47074=T pbc="F F F"
O        0.01030000       0.02890000      -0.36250000
C        0.02090000       1.20870000      -0.13970000
C       -1.19470000       2.12780000       0.05680000
C       -0.63420000       3.56420000      -0.04450000
N        0.77140000       3.38370000       0.29700000
C        1.87440000       4.28670000      -0.02040000
C        3.06490000       3.27480000      -0.02500000
N        2.46650000       1.93390000      -0.22200000
C        1.21860000       2.11020000      -0.01970000
H       -1.97850000       1.90330000      -0.66860000
H       -1.60290000       1.93290000       1.05500000
H       -0.74870000       3.96150000      -1.06630000
H       -1.12660000       4.26150000       0.63940000
H        1.72320000       4.75090000      -1.00860000
H        1.98640000       5.08360000       0.71930000
H        3.80290000       3.48540000      -0.80310000
H        3.59230000       3.28700000       0.93780000
