19
Properties=species:S:1:pos:R:3 gdb_1318=T pbc="F F F"
C       -0.42140000       1.43070000      -0.01320000
C        0.20220000       0.05100000      -0.05450000
O        1.50010000       0.04270000      -0.69420000
C        2.04020000      -0.82090000       0.32360000
C        0.79170000      -0.63160000       1.22280000
C        1.05040000       0.30810000       2.40020000
C        0.08180000      -1.90350000       1.67510000
H        0.21780000       2.15010000       0.50410000
H       -0.58040000       1.79220000      -1.03440000
H       -1.39510000       1.39910000       0.48790000
H       -0.47910000      -0.63740000      -0.58020000
H        2.18310000      -1.84780000      -0.04260000
H        2.99350000      -0.44700000       0.71650000
H        1.59780000       1.20380000       2.09250000
H        0.11510000       0.62790000       2.87270000
H        1.65000000      -0.19980000       3.16420000
H        0.67370000      -2.44070000       2.42510000
H       -0.88960000      -1.67280000       2.12790000
H       -0.09280000      -2.58400000       0.83540000
