19
Properties=species:S:1:pos:R:3 gdb_105902=T pbc="F F F"
C       -0.09210000       1.53980000       0.02230000
C        0.10890000       0.01970000      -0.02030000
C        0.82190000      -0.45230000      -1.25600000
C        2.23850000      -0.14160000      -1.76710000
O        3.24780000      -0.61460000      -0.90130000
C        1.71070000      -1.09890000      -2.85490000
C        0.89790000      -1.92120000      -1.80790000
O       -0.36470000      -1.83410000      -2.53540000
C        0.26630000      -0.53190000      -2.72090000
H        0.86660000       2.06840000       0.00500000
H       -0.68070000       1.88600000      -0.83400000
H       -0.62030000       1.83900000       0.93240000
H        0.67800000      -0.30390000       0.85970000
H       -0.86140000      -0.49010000       0.02500000
H        2.42720000       0.89340000      -2.08440000
H        4.09750000      -0.52100000      -1.34300000
H        2.18430000      -1.47500000      -3.76150000
H        1.14600000      -2.84880000      -1.29600000
H       -0.24810000       0.21930000      -3.31930000
