15
Properties=species:S:1:pos:R:3 gdb_77919=T pbc="F F F"
O        0.22510000       1.32270000      -0.27790000
C        0.08450000      -0.04270000      -0.06040000
C        0.01800000      -0.65240000       1.39550000
C       -1.45430000      -0.12140000       1.49470000
O       -1.68560000       1.27530000       1.56930000
C       -1.37380000      -0.68550000       0.01980000
O       -2.35250000      -0.73340000      -0.92920000
C       -0.64370000      -1.84900000       0.68270000
O       -0.59400000      -3.03900000       0.66450000
H       -0.37550000       1.77210000       0.33470000
H        0.77220000      -0.54750000      -0.74170000
H        0.78320000      -0.65530000       2.16410000
H       -2.11900000      -0.65620000       2.18070000
H       -1.56630000       1.55400000       2.48340000
H       -2.43520000       0.14220000      -1.32630000
