17
Properties=species:S:1:pos:R:3 gdb_71225=T pbc="F F F"
C        0.04060000       1.50570000      -0.03540000
C       -0.00810000       0.00300000       0.03770000
O        0.95680000      -0.63800000      -0.89330000
C        1.22650000      -1.61170000       0.08980000
C       -0.04710000      -2.48730000       0.55670000
O        0.00810000      -1.80310000       1.86330000
C        0.74090000      -0.76120000       1.25250000
C       -1.29730000      -1.99710000      -0.10620000
C       -1.31940000      -0.66850000      -0.26360000
H        1.05160000       1.87150000       0.16330000
H       -0.26080000       1.85500000      -1.02850000
H       -0.64110000       1.94040000       0.70340000
H        2.17790000      -2.13080000      -0.03160000
H        0.05920000      -3.56640000       0.66590000
H        1.31690000      -0.14260000       1.94340000
H       -2.11270000      -2.66330000      -0.36230000
H       -2.16680000      -0.10350000      -0.63710000
