18
Properties=species:S:1:pos:R:3 gdb_15341=T pbc="F F F"
C        0.26140000       1.31450000       0.11390000
O       -0.41540000       0.21500000      -0.46170000
C        0.35080000      -0.46060000      -1.39690000
C        1.34440000      -1.49230000      -0.93970000
C        0.03960000      -1.92360000      -1.61550000
C       -0.98460000      -2.58350000      -0.85970000
C       -1.85010000      -3.15720000      -0.24930000
C       -2.89890000      -3.83900000       0.49470000
H        1.17490000       1.00000000       0.63860000
H        0.53810000       2.06270000      -0.64480000
H       -0.42450000       1.77350000       0.82940000
H        0.60150000       0.12490000      -2.28400000
H        2.27210000      -1.62130000      -1.48610000
H        1.40140000      -1.67110000       0.12760000
H        0.13500000      -2.25830000      -2.64520000
H       -3.51620000      -4.45790000      -0.16630000
H       -2.48320000      -4.49610000       1.26720000
H       -3.56400000      -3.12360000       0.99140000
