21
Properties=species:S:1:pos:R:3 gdb_91408=T pbc="F F F"
C        0.18980000       1.60590000      -0.01010000
C        0.12690000       0.07860000       0.01210000
C        0.64990000      -0.59160000      -1.28790000
C        1.22440000      -1.99200000      -1.02790000
C        0.41380000      -2.72060000       0.08130000
C        1.28280000      -1.93490000       1.10810000
C        2.38530000      -1.89470000      -0.00320000
C        0.78500000      -0.51280000       1.26980000
O        0.89710000       0.10850000       2.30130000
H        1.22230000       1.95100000      -0.13030000
H       -0.39940000       2.00750000      -0.84040000
H       -0.19030000       2.01910000       0.92620000
H       -0.92880000      -0.21270000       0.12500000
H       -0.16200000      -0.64280000      -2.02210000
H        1.43200000       0.03620000      -1.73330000
H        1.41370000      -2.52460000      -1.96290000
H       -0.67200000      -2.59480000       0.10940000
H        0.64990000      -3.78720000       0.11730000
H        1.52010000      -2.37160000       2.07840000
H        2.99310000      -2.80270000       0.02450000
H        3.04300000      -1.02130000      -0.04600000
