18
Properties=species:S:1:pos:R:3 gdb_27049=T pbc="F F F"
C        0.13180000       1.47850000      -0.15380000
C        0.06830000      -0.01410000      -0.10360000
C       -0.02240000      -0.95730000      -1.11480000
C       -0.02040000      -0.66440000      -2.59390000
C        1.36980000      -0.21760000      -3.00500000
O        1.65860000       0.90250000      -3.34660000
C       -0.07570000      -2.24260000      -0.49750000
C       -0.02850000      -2.05350000       0.86110000
N        0.05690000      -0.70140000       1.08550000
H        0.89060000       1.87290000       0.53240000
H        0.39620000       1.81460000      -1.15860000
H       -0.82550000       1.94390000       0.11500000
H       -0.27650000      -1.57640000      -3.14600000
H       -0.73250000       0.11870000      -2.87070000
H        2.14690000      -1.01070000      -2.91860000
H       -0.14810000      -3.19270000      -1.00550000
H       -0.04910000      -2.75430000       1.67990000
H        0.10630000      -0.26900000       1.99190000
