22
Properties=species:S:1:pos:R:3 gdb_59539=T pbc="F F F"
C        0.76760000      -1.28550000      -1.33980000
C        0.06830000      -0.39680000      -0.31780000
O       -0.10630000       0.88780000      -0.90560000
C       -1.30160000      -0.94270000       0.07210000
C       -1.53270000      -2.13470000       1.03460000
C       -2.47790000      -1.20650000       1.80050000
C       -1.79270000      -0.00990000       2.32060000
C       -0.40060000       0.04660000       2.91170000
N       -2.18270000      -0.01340000       0.88450000
H        1.71370000      -0.83040000      -1.64510000
H        0.97980000      -2.27400000      -0.91990000
H        0.14440000      -1.40690000      -2.23150000
H        0.71300000      -0.31520000       0.56890000
H       -0.82270000       1.32090000      -0.42470000
H       -1.85520000      -1.10780000      -0.85860000
H       -2.02820000      -2.98280000       0.56080000
H       -0.67180000      -2.50780000       1.59820000
H       -3.49610000      -1.46370000       2.07650000
H       -2.47150000       0.67670000       2.82530000
H        0.11060000       0.97270000       2.62870000
H       -0.48150000       0.03510000       4.00420000
H        0.23270000      -0.79300000       2.62210000
