14
Properties=species:S:1:pos:R:3 gdb_21176=T pbc="F F F"
C       -0.12830000       1.46140000      -0.08930000
N       -0.01150000       0.02350000       0.10970000
C       -1.11290000      -0.77990000       0.07840000
C       -1.26700000      -2.13850000      -0.02280000
C       -2.67060000      -2.29070000       0.07680000
O       -3.31930000      -3.46590000       0.03420000
N       -3.32390000      -1.16080000       0.21880000
O       -2.30130000      -0.17360000       0.21470000
H        0.84560000       1.91730000       0.09970000
H       -0.45870000       1.73220000      -1.10140000
H       -0.84570000       1.87120000       0.62400000
H        0.82370000      -0.40730000      -0.25280000
H       -0.51740000      -2.90110000      -0.13740000
H       -4.26290000      -3.27650000       0.12460000
