18
Properties=species:S:1:pos:R:3 gdb_39154=T pbc="F F F"
C       -0.06100000       1.44560000      -0.20920000
C        1.47520000       1.55560000       0.07980000
O        1.91030000       2.35440000       1.18790000
C        2.07030000       1.52080000       2.36630000
C        1.17700000       0.36830000       2.03390000
C       -0.04370000      -0.00160000       2.41650000
C       -0.82140000      -0.50650000       1.20000000
N       -0.02810000      -0.04450000       0.03720000
C        1.35690000       0.10830000       0.54940000
H       -0.66820000       2.01640000       0.50040000
H       -0.36870000       1.68530000      -1.23040000
H        2.09330000       1.79650000      -0.78690000
H        3.12880000       1.25050000       2.48640000
H        1.75060000       2.09640000       3.23860000
H       -0.49290000       0.16390000       3.38920000
H       -0.93080000      -1.59920000       1.16890000
H       -1.83280000      -0.08400000       1.16800000
H        2.08850000      -0.65890000       0.27600000
