16
Properties=species:S:1:pos:R:3 gdb_125411=T pbc="F F F"
C       -0.11220000       1.48300000       0.17240000
C       -0.10880000      -0.00060000      -0.00810000
C       -0.15380000      -0.74060000      -1.14210000
O       -0.13160000      -2.05030000      -0.87000000
N       -0.06810000      -2.23320000       0.51860000
C       -0.05550000      -1.01340000       1.01100000
N        0.00240000      -0.71110000       2.36150000
C        0.05750000      -1.56080000       3.45160000
N        0.06310000      -2.82570000       3.36590000
H        0.79320000       1.83500000       0.68270000
H       -0.15950000       1.99380000      -0.79250000
H       -0.97360000       1.82130000       0.76190000
H       -0.20250000      -0.47310000      -2.18710000
H        0.00420000       0.27190000       2.57420000
H        0.09480000      -0.97880000       4.38170000
H        0.10790000      -3.23690000       4.29610000
