19
Properties=species:S:1:pos:R:3 gdb_50668=T pbc="F F F"
O        0.48920000      -0.24030000      -0.45630000
C        0.14000000       0.87880000      -0.19030000
C        1.09710000       2.04600000       0.05050000
O        2.39760000       1.59670000       0.35580000
C        3.23330000       1.65740000      -0.80930000
C        2.34280000       2.12900000      -1.97140000
C        1.23570000       2.86600000      -1.23270000
C        0.09560000       3.57560000      -1.90730000
C        1.17040000       4.37090000      -1.20270000
H       -0.93940000       1.15560000      -0.13410000
H        0.71070000       2.64390000       0.88750000
H        4.04810000       2.36620000      -0.61350000
H        3.66720000       0.66860000      -0.98610000
H        2.87660000       2.76410000      -2.68220000
H        1.93680000       1.26990000      -2.51510000
H        0.07480000       3.58350000      -2.99190000
H       -0.88750000       3.53660000      -1.45000000
H        0.91450000       4.85790000      -0.26750000
H        1.88200000       4.91890000      -1.81180000
