20
Properties=species:S:1:pos:R:3 gdb_99517=T pbc="F F F"
C       -0.02720000       1.55330000      -0.01070000
C       -0.01490000       0.01920000       0.01740000
C        0.63820000      -0.48430000       1.30740000
O       -1.34550000      -0.49110000       0.03570000
C        0.73940000      -0.54140000      -1.23860000
C        0.86930000      -2.08800000      -1.25750000
O        1.46790000      -2.56190000      -2.44340000
C        0.03180000      -0.13230000      -2.45510000
N       -0.56930000       0.14780000      -3.40320000
H        0.98690000       1.96120000       0.04840000
H       -0.48790000       1.93070000      -0.92960000
H       -0.60140000       1.92750000       0.84100000
H        0.16040000      -0.00460000       2.16530000
H        0.51240000      -1.56330000       1.41800000
H        1.70580000      -0.24680000       1.32850000
H       -1.83590000      -0.08620000      -0.68990000
H        1.74750000      -0.11240000      -1.27820000
H        1.53010000      -2.39500000      -0.44440000
H       -0.12150000      -2.52480000      -1.08020000
H        0.85510000      -2.41320000      -3.17250000
