18
Properties=species:S:1:pos:R:3 gdb_122726=T pbc="F F F"
C       -0.03890000       1.49160000       0.06010000
C        0.01310000      -0.03630000      -0.01700000
C        0.72920000      -0.52670000      -1.26640000
O        0.73040000      -1.94620000      -1.25560000
C        1.37540000      -2.49330000      -2.37960000
C        1.34270000      -3.94810000      -2.30790000
C        1.32940000      -5.15440000      -2.27270000
C        1.31280000      -6.51910000      -2.23020000
N        1.30020000      -7.68010000      -2.19650000
H        0.96660000       1.92610000       0.07890000
H       -0.56920000       1.91820000      -0.79830000
H       -0.55770000       1.81860000       0.96540000
H        0.52610000      -0.44580000       0.86030000
H       -0.99990000      -0.45370000      -0.01130000
H        0.22370000      -0.15570000      -2.17440000
H        1.76510000      -0.14770000      -1.29400000
H        0.89030000      -2.16970000      -3.31760000
H        2.42700000      -2.16100000      -2.43990000
