15
Properties=species:S:1:pos:R:3 gdb_79276=T pbc="F F F"
O        0.11400000       1.39290000      -0.03480000
C        0.00020000       0.01010000      -0.01560000
C       -1.37070000      -0.66430000      -0.06260000
C       -1.68940000      -0.74400000      -1.55900000
O       -0.64030000      -0.07580000      -2.27570000
C        0.27940000      -0.74270000      -1.37400000
C        1.65920000      -0.98380000      -1.87750000
O        2.09100000      -0.57270000      -2.92170000
C       -0.82040000      -1.78530000      -0.94780000
H       -0.27900000       1.67970000      -0.87130000
H        0.61730000      -0.38330000       0.79550000
H       -2.12590000      -0.72120000       0.71010000
H       -2.67820000      -0.78280000      -1.99390000
H        2.28170000      -1.57880000      -1.17060000
H       -0.85020000      -2.86300000      -0.88920000
