16
Properties=species:S:1:pos:R:3 gdb_10124=T pbc="F F F"
C       -0.25140000       1.48290000       0.18740000
O        0.00650000       0.09210000       0.26480000
C        0.51840000      -0.45630000      -0.93080000
C        1.09380000      -1.84240000      -0.59450000
C        2.27520000      -1.75870000       0.35560000
O        3.28870000      -2.39340000       0.22080000
C       -0.59180000      -0.62330000      -1.97060000
O       -0.41510000      -0.64210000      -3.15860000
H        0.66730000       2.04930000      -0.02260000
H       -0.99150000       1.72360000      -0.58960000
H       -0.64740000       1.78880000       1.15770000
H        1.30330000       0.18240000      -1.36500000
H        0.30440000      -2.42560000      -0.09970000
H        1.40030000      -2.36840000      -1.50150000
H        2.13360000      -1.06050000       1.20680000
H       -1.59810000      -0.76240000      -1.51040000
