13
Properties=species:S:1:pos:R:3 gdb_28195=T pbc="F F F"
O        0.08110000       1.28280000       0.18740000
C        0.07010000      -0.04890000       0.01700000
N        0.09640000      -0.69280000      -1.11830000
C        0.06840000      -2.03220000      -0.72650000
C        0.02660000      -2.11910000       0.63150000
N        0.02650000      -0.84350000       1.14900000
O       -0.00290000      -3.36700000       1.11310000
C        0.02240000      -4.15150000      -0.04240000
C        0.06560000      -3.39580000      -1.17750000
H        0.11210000       1.66550000      -0.69890000
H        0.00170000      -0.52530000       2.10170000
H        0.00400000      -5.21130000       0.14240000
H        0.09130000      -3.78150000      -2.18440000
