21
Properties=species:S:1:pos:R:3 gdb_58220=T pbc="F F F"
C       -0.13580000       1.53990000      -0.12050000
C        0.05360000       0.01680000      -0.04830000
C        0.79320000      -0.50890000      -1.28590000
C        0.78120000      -0.43570000       1.23360000
O        2.09460000       0.09800000       1.36180000
C       -0.02160000      -0.12950000       2.52700000
O       -1.35670000      -0.53570000       2.42340000
C        0.63820000      -0.80340000       3.71380000
O        0.01180000      -1.53940000       4.44060000
H        0.82300000       2.07250000      -0.17030000
H       -0.68520000       1.80800000      -1.02770000
H       -0.70340000       1.92820000       0.73050000
H       -0.93890000      -0.44390000      -0.00310000
H        1.81850000      -0.12720000      -1.31710000
H        0.84550000      -1.60260000      -1.28200000
H        0.28520000      -0.20050000      -2.20490000
H        0.92190000      -1.52190000       1.17300000
H        2.03440000       1.05630000       1.28070000
H        0.04560000       0.96040000       2.70750000
H       -1.50690000      -1.12180000       3.18390000
H        1.71230000      -0.59500000       3.86460000
