23
Properties=species:S:1:pos:R:3 gdb_91386=T pbc="F F F"
C       -0.20420000       1.45050000      -0.28180000
C       -0.08510000      -0.00560000       0.11740000
O        0.55910000      -0.81560000      -0.89750000
C        1.36090000      -1.49970000       0.09720000
C        2.87820000      -1.35770000      -0.09260000
C        3.36000000      -0.61100000       1.17300000
C        4.71120000       0.08530000       1.02610000
C        2.18270000       0.33500000       1.50470000
C        0.92340000      -0.49380000       1.19280000
H        0.76820000       1.88690000      -0.52330000
H       -0.83960000       1.53840000      -1.16910000
H       -0.66280000       2.03400000       0.52400000
H       -1.08950000      -0.40420000       0.32750000
H        1.02970000      -2.53820000       0.21750000
H        3.38930000      -2.31450000      -0.23380000
H        3.05630000      -0.74870000      -0.98640000
H        3.43570000      -1.34680000       1.98690000
H        4.68060000       0.82900000       0.22090000
H        4.99670000       0.60310000       1.94810000
H        5.50590000      -0.62960000       0.78790000
H        2.21150000       0.69070000       2.53870000
H        2.24520000       1.22090000       0.86230000
H        0.46770000      -0.90740000       2.09430000
