14
Properties=species:S:1:pos:R:3 gdb_42769=T pbc="F F F"
O       -0.04210000      -0.04970000      -0.03060000
C       -0.04050000       1.12930000       0.06940000
C       -1.01490000       2.32340000       0.01430000
C       -0.80780000       2.99640000       1.38320000
C        0.75810000       2.98000000       1.41960000
C        1.00150000       2.30760000       0.04680000
O        0.01460000       2.96000000      -0.81550000
C        2.33680000       2.20660000      -0.48160000
N        3.41730000       2.09240000      -0.87490000
H       -1.99910000       2.28360000      -0.44510000
H       -1.20910000       4.01100000       1.38070000
H       -1.26690000       2.43540000       2.20060000
H        1.19180000       3.98070000       1.43830000
H        1.17490000       2.39610000       2.24290000
