21
Properties=species:S:1:pos:R:3 gdb_40949=T pbc="F F F"
C        0.00790000       1.31180000      -0.38850000
C        1.44560000       1.52870000       0.11340000
C        1.28400000       0.14520000       0.80020000
C        2.13550000      -0.97550000       0.20500000
C        1.88630000      -2.29780000       0.93630000
C        2.28150000      -2.17350000       2.41390000
C        1.77650000      -0.89080000       3.01910000
C        1.32480000       0.13740000       2.30040000
O       -0.10630000       0.06560000       0.32440000
H       -0.73440000       2.04540000      -0.05150000
H       -0.10050000       1.17860000      -1.47260000
H        2.22090000       1.57430000      -0.65400000
H        1.57480000       2.36510000       0.80300000
H        1.90780000      -1.06480000      -0.86230000
H        3.19400000      -0.69270000       0.29160000
H        0.81930000      -2.53920000       0.86300000
H        2.43630000      -3.11580000       0.46010000
H        1.89950000      -3.02580000       2.98920000
H        3.37680000      -2.21770000       2.51980000
H        1.78360000      -0.82140000       4.10500000
H        0.93670000       1.02430000       2.79620000
