16
Properties=species:S:1:pos:R:3 gdb_16471=T pbc="F F F"
O       -0.06250000       1.38090000       0.06560000
C        0.00360000      -0.00630000       0.02300000
C        0.90320000      -0.74080000       1.02180000
O        0.61400000      -2.10100000       0.68720000
C       -0.33790000      -1.95780000      -0.35740000
C       -1.33480000      -0.80400000      -0.04520000
C       -1.42280000      -0.50180000      -1.56010000
C        0.07270000      -0.81900000      -1.32880000
H        0.80890000       1.73670000      -0.14000000
H        1.97180000      -0.52820000       0.87860000
H        0.63630000      -0.52920000       2.06450000
H       -0.67760000      -2.92650000      -0.71740000
H       -2.12900000      -0.79740000       0.70170000
H       -1.98780000      -1.20990000      -2.17230000
H       -1.65650000       0.53010000      -1.82330000
H        0.89110000      -0.82990000      -2.05050000
