18
Properties=species:S:1:pos:R:3 gdb_15368=T pbc="F F F"
C        0.13370000       1.07640000      -0.52010000
O       -0.12020000       0.11360000       0.48450000
C       -1.38090000      -0.46370000       0.38260000
C       -1.58580000      -1.61360000      -0.57310000
C       -1.53290000      -1.85210000       0.92930000
C       -0.34880000      -2.56280000       1.55780000
C       -0.40720000      -4.06020000       1.34760000
O       -0.28430000      -4.88480000       2.21650000
H        1.14140000       1.46110000      -0.34850000
H        0.07930000       0.63700000      -1.52630000
H       -0.58070000       1.91140000      -0.46740000
H       -2.20610000       0.23520000       0.52850000
H       -2.53340000      -1.71600000      -1.09000000
H       -0.71820000      -1.91710000      -1.15020000
H       -2.48600000      -2.06010000       1.40770000
H        0.57280000      -2.18970000       1.09320000
H       -0.28140000      -2.36410000       2.63150000
H       -0.58000000      -4.36540000       0.28900000
