20
Properties=species:S:1:pos:R:3 gdb_54915=T pbc="F F F"
C       -0.20160000       1.51930000      -0.03030000
C       -0.05550000       0.00060000      -0.06450000
O       -1.27380000      -0.61610000      -0.43000000
C        1.22940000      -0.48690000      -0.80110000
C        1.93450000      -0.62660000       0.57970000
C        0.52040000      -0.60680000       1.23570000
C        2.73880000      -1.89690000       0.78560000
N        3.99200000      -1.72540000       1.29970000
O        2.29620000      -2.99630000       0.50770000
H        0.72020000       2.00850000       0.30050000
H       -0.43690000       1.90790000      -1.02960000
H       -1.00950000       1.80700000       0.64970000
H       -1.60210000      -0.18940000      -1.22890000
H        1.06240000      -1.47850000      -1.22680000
H        1.68760000       0.17450000      -1.54150000
H        2.51450000       0.26470000       0.83500000
H        0.39300000      -0.04600000       2.16480000
H        0.15500000      -1.62830000       1.35820000
H        4.34440000      -0.82600000       1.57370000
H        4.54780000      -2.54370000       1.48790000
