16
Properties=species:S:1:pos:R:3 gdb_48525=T pbc="F F F"
O       -0.48470000       0.03970000      -0.23320000
C       -0.18790000       1.16130000       0.09540000
C        1.17850000       1.71160000       0.06880000
C        1.83350000       2.60840000       1.04930000
C        3.15920000       1.91970000       1.44550000
C        3.52460000       1.30280000       0.10550000
C        2.44040000       1.31540000      -0.70120000
C        2.28790000       2.59500000      -1.52440000
N        1.45860000       3.13270000      -0.33620000
H       -0.94530000       1.89410000       0.45530000
H        1.25870000       3.15890000       1.78950000
H        3.95470000       2.61020000       1.74680000
H        2.96810000       1.25690000       2.30060000
H        4.52190000       1.45870000      -0.29680000
H        3.19650000       3.15350000      -1.76210000
H        1.60200000       2.58080000      -2.37550000
