18
Properties=species:S:1:pos:R:3 gdb_128132=T pbc="F F F"
C       -0.59630000       1.08360000       0.24700000
N        0.37560000       0.06900000      -0.18830000
C        0.93830000      -0.68970000       0.85820000
C        0.64080000      -2.00890000       1.14660000
N       -0.27980000      -2.87730000       0.57300000
N        1.40000000      -2.29870000       2.22610000
C        1.49060000      -3.53390000       2.96730000
N        2.15630000      -1.21450000       2.58250000
N        1.85820000      -0.25260000       1.76320000
H       -0.17870000       1.81330000       0.95470000
H       -0.97380000       1.61730000      -0.63060000
H       -1.44170000       0.58600000       0.73150000
H        1.11400000       0.51940000      -0.71890000
H       -0.64140000      -2.46280000      -0.27980000
H        0.09090000      -3.79960000       0.37480000
H        2.08770000      -3.33310000       3.85710000
H        0.49340000      -3.87510000       3.26070000
H        1.97960000      -4.32030000       2.38100000
