15
Properties=species:S:1:pos:R:3 gdb_37558=T pbc="F F F"
C       -0.04660000       1.50140000       0.20020000
O        1.29920000       1.92610000      -0.18440000
C        1.93820000       0.80050000      -0.62940000
C        2.65130000       0.25140000      -1.95560000
O        3.99770000       0.32880000      -1.43960000
C        3.23310000      -0.07890000      -0.28460000
C        2.27750000      -1.03960000      -1.11130000
C        1.05230000      -0.36580000      -0.55150000
C       -0.12700000      -0.00910000      -0.07050000
H       -0.19600000       1.75450000       1.25820000
H       -0.76970000       2.08030000      -0.38960000
H        2.46550000       0.44520000      -3.01090000
H        3.74230000      -0.27990000       0.65670000
H        2.49200000      -2.06680000      -1.38910000
H       -1.02060000      -0.58550000       0.12670000
