18
Properties=species:S:1:pos:R:3 gdb_79474=T pbc="F F F"
O       -0.19390000       1.39250000      -0.10000000
C       -0.01470000      -0.01150000      -0.06690000
C        0.15250000      -0.56100000       1.35770000
C       -1.36010000      -0.37860000       1.63880000
C       -1.30510000      -1.72860000       2.33820000
N       -0.18350000      -2.08640000       1.37550000
C       -0.97850000      -2.14740000       0.10210000
C       -1.40440000      -0.67820000       0.05190000
O       -2.44660000      -0.33350000      -0.78710000
H        0.65610000       1.81980000       0.04400000
H        0.65510000      -0.35290000      -0.86770000
H        0.96240000      -0.28680000       2.03190000
H       -1.82960000       0.53130000       2.00740000
H       -0.91420000      -1.66660000       3.35830000
H       -2.16170000      -2.41000000       2.31420000
H       -0.35330000      -2.44170000      -0.74520000
H       -1.80500000      -2.85520000       0.19310000
H       -2.41630000       0.62490000      -0.89750000
