17
Properties=species:S:1:pos:R:3 gdb_87936=T pbc="F F F"
O       -0.34590000       1.19720000      -0.57720000
C       -0.20120000      -0.14080000      -0.20630000
C       -0.14500000      -0.51760000       1.26610000
C       -1.37800000      -0.79390000       0.46710000
C       -2.70450000      -0.08340000       0.61200000
C       -3.62860000      -0.95660000      -0.24270000
O       -4.76230000      -0.72790000      -0.56490000
C       -2.81420000      -2.20070000      -0.62090000
O       -1.63750000      -2.15280000       0.16760000
H        0.46880000       1.66250000      -0.36000000
H        0.36730000      -0.76670000      -0.89340000
H        0.46850000      -1.36700000       1.54630000
H       -0.19310000       0.28710000       1.99270000
H       -3.07290000      -0.08870000       1.64480000
H       -2.69030000       0.94730000       0.25430000
H       -3.35970000      -3.12410000      -0.40910000
H       -2.59250000      -2.16500000      -1.69990000
