19
Properties=species:S:1:pos:R:3 gdb_55740=T pbc="F F F"
C        0.86190000       0.58910000       0.25770000
C       -0.48010000       0.07930000      -0.22090000
O       -1.52230000       0.35830000       0.32410000
C       -0.45770000      -0.86290000      -1.43040000
C       -0.13410000      -2.27530000      -1.01590000
C       -0.76080000      -3.15310000       0.10240000
C        0.50520000      -3.84970000      -0.44140000
C        0.05360000      -3.54670000      -1.88800000
O        1.20790000      -2.54320000      -0.41790000
H        1.51550000      -0.26450000       0.46800000
H        1.34670000       1.17620000      -0.53110000
H        0.73340000       1.20420000       1.14900000
H       -1.45080000      -0.85040000      -1.88800000
H        0.28330000      -0.53710000      -2.16900000
H       -0.67740000      -2.75100000       1.11230000
H       -1.73110000      -3.61490000      -0.09490000
H        1.04520000      -4.71140000      -0.05160000
H       -0.84180000      -4.04590000      -2.26650000
H        0.85750000      -3.48720000      -2.62280000
