18
Properties=species:S:1:pos:R:3 gdb_81489=T pbc="F F F"
C       -0.10730000       1.52070000      -0.01950000
C       -0.03450000      -0.01090000      -0.02090000
C       -1.33780000      -0.54860000      -0.38810000
C       -2.44720000      -0.90200000      -0.69930000
C        1.25470000      -0.68350000      -0.63190000
N        2.00750000      -0.09270000       0.54150000
C        0.76370000      -0.70850000       1.14700000
C        1.00430000      -1.96610000       0.23840000
O        0.07230000      -2.95450000      -0.03270000
H        0.85800000       1.94480000       0.25290000
H       -0.39760000       1.88400000      -1.01010000
H       -0.86720000       1.86020000       0.69110000
H       -3.42160000      -1.22500000      -0.97310000
H        1.61670000      -0.59200000      -1.65760000
H        2.81530000      -0.68500000       0.75610000
H        0.54790000      -0.64630000       2.21520000
H        1.93690000      -2.48240000       0.48850000
H       -0.77320000      -2.54420000      -0.26030000
