20
Properties=species:S:1:pos:R:3 gdb_105206=T pbc="F F F"
C       -0.28180000       1.06040000      -1.43390000
N       -0.25350000       0.39880000      -0.12890000
H        0.61900000      -0.09410000       0.01230000
H       -1.01860000       1.53150000       1.21350000
C       -1.39560000      -0.42050000       0.21170000
C       -2.02150000      -1.42120000      -0.75040000
C       -1.25870000      -1.92640000       0.43240000
C        0.07240000      -2.62330000       0.26610000
C       -2.36090000       0.26310000       1.15830000
O       -1.90650000       1.43560000       1.62290000
O       -3.42440000      -0.20320000       1.48030000
H        0.60620000       1.69070000      -1.53360000
H       -0.31370000       0.36660000      -2.28660000
H       -1.16320000       1.70560000      -1.49350000
H       -3.10290000      -1.48210000      -0.73480000
H       -1.55660000      -1.51740000      -1.72620000
H       -1.86770000      -2.28750000       1.25540000
H        0.62100000      -2.25860000      -0.60860000
H        0.71040000      -2.49760000       1.14840000
H       -0.08070000      -3.69780000       0.12260000
