21
Properties=species:S:1:pos:R:3 gdb_121211=T pbc="F F F"
C       -0.13300000       1.51640000      -0.02320000
C       -0.00440000      -0.00760000      -0.08050000
C        0.81360000      -0.49380000      -1.28380000
C        0.90420000      -2.00860000      -1.33460000
O       -0.37200000      -2.64810000      -1.57530000
C        0.19480000      -3.49610000      -2.58790000
C        1.54310000      -2.73800000      -2.56380000
C        1.80230000      -1.88520000      -3.77750000
O        2.88680000      -1.71910000      -4.27410000
H        0.84960000       1.99630000       0.04810000
H       -0.62630000       1.90640000      -0.92030000
H       -0.72170000       1.83210000       0.84340000
H        0.46230000      -0.37390000       0.84350000
H       -0.99900000      -0.46570000      -0.12540000
H        0.35980000      -0.11930000      -2.20890000
H        1.83290000      -0.08590000      -1.23830000
H        1.34310000      -2.38180000      -0.39690000
H        0.26670000      -4.54210000      -2.26540000
H       -0.37190000      -3.45000000      -3.52630000
H        2.43630000      -3.32250000      -2.34260000
H        0.89430000      -1.40730000      -4.21280000
