22
Properties=species:S:1:pos:R:3 gdb_9682=T pbc="F F F"
C       -0.37200000       1.45900000       0.23850000
C        0.23220000       0.08930000      -0.09060000
C        0.92200000      -0.54660000       1.09880000
C        0.11330000      -1.29490000       2.14840000
C        1.06280000      -2.03650000       1.23350000
O        0.49540000      -2.78380000       0.18360000
C        2.34470000      -2.62830000       1.79010000
C        2.15320000      -4.02010000       2.40420000
H        0.39700000       2.16190000       0.57850000
H       -0.85890000       1.89790000      -0.63820000
H       -1.11960000       1.37910000       1.03490000
H       -0.54330000      -0.58970000      -0.45700000
H        0.95370000       0.19490000      -0.91120000
H        1.76310000       0.02680000       1.48480000
H        0.36770000      -1.18110000       3.19740000
H       -0.94740000      -1.41420000       1.94960000
H        0.05300000      -3.54650000       0.56990000
H        3.08290000      -2.68300000       0.98010000
H        2.75150000      -1.94430000       2.54400000
H        1.43030000      -3.99570000       3.22730000
H        1.79200000      -4.73360000       1.65580000
H        3.09600000      -4.41140000       2.79760000
