13
Properties=species:S:1:pos:R:3 gdb_3424=T pbc="F F F"
O        0.01530000       0.04320000       0.17260000
C        0.00140000       1.23720000       0.01790000
C       -1.26290000       2.09690000      -0.16170000
O       -0.84870000       3.37470000      -0.62270000
C        0.55060000       3.48710000      -0.50800000
C        1.13850000       3.36710000       0.85360000
C        1.16200000       2.16550000      -0.10720000
H       -1.92950000       1.63730000      -0.89870000
H       -1.80840000       2.16850000       0.79000000
H        0.97800000       4.13870000      -1.26050000
H        2.10210000       3.82800000       1.03880000
H        0.47500000       3.33710000       1.71120000
H        2.10840000       1.78070000      -0.46210000
