21
Properties=species:S:1:pos:R:3 gdb_102163=T pbc="F F F"
C        0.93450000      -0.05670000      -0.98920000
C       -0.03190000       0.14150000       0.18520000
O       -0.09010000       1.50850000       0.56480000
C       -1.45670000      -0.42390000      -0.04880000
C       -2.09400000       0.04390000      -1.35930000
O       -2.05390000       1.47020000      -1.41110000
C       -1.51010000      -1.97090000       0.00180000
C       -1.12070000      -2.52950000       1.29070000
C       -0.80540000      -2.98120000       2.35900000
H        1.92020000       0.32320000      -0.70890000
H        1.04460000      -1.11140000      -1.26510000
H        0.60250000       0.50030000      -1.87150000
H        0.37470000      -0.38040000       1.05880000
H       -0.61840000       1.95260000      -0.11130000
H       -2.06560000      -0.03780000       0.77680000
H       -1.55600000      -0.38880000      -2.21600000
H       -3.13450000      -0.31120000      -1.41060000
H       -2.33740000       1.75880000      -2.28310000
H       -2.53070000      -2.30090000      -0.23390000
H       -0.87090000      -2.39200000      -0.78530000
H       -0.52640000      -3.38310000       3.30130000
