17
Properties=species:S:1:pos:R:3 gdb_124790=T pbc="F F F"
C        0.09970000       1.50860000       0.12060000
C       -0.05290000      -0.01540000       0.01110000
O       -1.41460000      -0.40260000      -0.04210000
C        0.68480000      -0.54810000      -1.18590000
N        1.95200000      -0.94480000      -1.21060000
N        2.10050000      -1.28090000      -2.48870000
C        3.33650000      -1.80340000      -3.03700000
N        1.00810000      -1.11400000      -3.21940000
N        0.09810000      -0.64440000      -2.40300000
H        1.15070000       1.79030000       0.24070000
H       -0.28890000       1.99590000      -0.77960000
H       -0.46550000       1.86810000       0.98420000
H        0.36760000      -0.48250000       0.90770000
H       -1.70380000      -0.30560000      -0.95800000
H        3.60110000      -2.73360000      -2.53000000
H        3.16940000      -1.98590000      -4.09760000
H        4.13770000      -1.07450000      -2.89950000
