20
Properties=species:S:1:pos:R:3 gdb_46907=T pbc="F F F"
O        0.03540000      -0.00560000      -0.34710000
C       -0.00130000       1.17750000      -0.09350000
C       -1.34090000       1.89350000       0.06900000
C       -1.48250000       2.82000000       1.29640000
C       -0.73850000       4.13030000       1.13200000
C        0.09150000       4.71300000       2.24990000
C        0.76930000       4.10150000       1.05010000
N        1.37390000       2.81110000       1.20270000
C        1.30890000       1.97250000       0.00510000
H       -1.50430000       2.48640000      -0.84340000
H       -2.10110000       1.10790000       0.07930000
H       -2.54770000       3.02760000       1.44910000
H       -1.13580000       2.29560000       2.19080000
H       -1.22690000       4.84470000       0.47420000
H        0.12690000       5.79050000       2.36530000
H        0.14430000       4.15200000       3.17660000
H        1.23140000       4.78880000       0.33490000
H        2.33020000       2.88910000       1.52560000
H        2.10940000       1.23010000       0.03210000
H        1.42810000       2.55420000      -0.92910000
