18
Properties=species:S:1:pos:R:3 gdb_56326=T pbc="F F F"
C        0.03790000       1.37660000      -0.14610000
C        0.09260000      -0.12720000      -0.02990000
O        1.09050000      -0.79930000      -0.02000000
O       -1.15490000      -0.64670000       0.06480000
C       -1.23050000      -2.08300000       0.16720000
C       -2.69830000      -2.43830000       0.32650000
N       -3.49160000      -2.00260000      -0.80770000
C       -4.23620000      -2.85430000      -1.56300000
O       -4.34560000      -4.04660000      -1.37140000
H        1.05160000       1.77390000      -0.17490000
H       -0.49690000       1.66260000      -1.05670000
H       -0.50850000       1.80190000       0.70010000
H       -0.80340000      -2.53150000      -0.73460000
H       -0.64500000      -2.41920000       1.02800000
H       -2.81260000      -3.52240000       0.39400000
H       -3.08300000      -1.99510000       1.25350000
H       -3.45000000      -1.02980000      -1.06590000
H       -4.74700000      -2.32530000      -2.39160000
