21
Properties=species:S:1:pos:R:3 gdb_109247=T pbc="F F F"
C       -0.25260000       1.52670000      -0.04430000
C        0.09940000       0.02990000       0.03300000
C        0.78120000      -0.48460000      -1.20230000
C        2.03860000      -0.93130000      -1.26310000
C        2.59860000      -1.40860000      -2.58770000
C        1.52400000      -1.23890000      -3.67120000
C        0.87430000       0.16260000      -3.62960000
C        0.03010000      -0.52050000      -2.52830000
O        0.27860000      -1.80870000      -3.17190000
H        0.65120000       2.13360000      -0.15760000
H       -0.90720000       1.74270000      -0.89540000
H       -0.77120000       1.85280000       0.86250000
H        0.73990000      -0.15050000       0.90360000
H       -0.82520000      -0.54100000       0.20060000
H        2.67160000      -0.97850000      -0.38030000
H        3.50480000      -0.84890000      -2.85830000
H        2.89490000      -2.46400000      -2.52220000
H        1.81600000      -1.66240000      -4.63590000
H        1.48380000       1.02610000      -3.35710000
H        0.29460000       0.35930000      -4.53320000
H       -1.03740000      -0.30280000      -2.44290000
