15
Properties=species:S:1:pos:R:3 gdb_125624=T pbc="F F F"
C       -0.01490000       1.47780000      -0.04860000
C       -0.02140000      -0.01330000       0.01740000
N       -0.04220000      -0.75180000      -1.07490000
N       -0.03680000      -2.04650000      -0.62500000
C       -0.01230000      -2.14360000       0.71900000
N       -0.07200000      -3.33820000       1.40080000
C        0.00220000      -0.83080000       1.19270000
C        0.05510000      -0.45260000       2.54780000
N        0.10380000      -0.16960000       3.67240000
H        0.88010000       1.89110000       0.42840000
H       -0.03860000       1.80070000      -1.09080000
H       -0.88140000       1.89910000       0.47180000
H       -0.10530000      -2.79470000      -1.29350000
H        0.45310000      -4.10170000       0.99750000
H        0.10970000      -3.24210000       2.39070000
