19
Properties=species:S:1:pos:R:3 gdb_47093=T pbc="F F F"
O       -0.03660000       0.23760000      -0.79480000
C        0.05110000       1.28840000      -0.21780000
C       -1.00840000       1.95540000       0.65480000
C       -0.80620000       3.46240000       0.39620000
C        0.67980000       3.65980000      -0.06110000
C        1.60860000       4.25630000       1.01210000
C        1.99050000       3.02220000       1.82880000
O        2.07600000       1.95510000       0.88650000
C        1.25890000       2.24170000      -0.25990000
H       -2.00670000       1.58020000       0.42380000
H       -0.79170000       1.69830000       1.69970000
H       -1.47950000       3.79100000      -0.40070000
H       -1.03770000       4.07020000       1.27500000
H        0.71580000       4.24460000      -0.98180000
H        2.49930000       4.68630000       0.54320000
H        1.12750000       5.03570000       1.60900000
H        2.95970000       3.10360000       2.32970000
H        1.23100000       2.80260000       2.59590000
H        1.85770000       2.09120000      -1.16230000
