19
Properties=species:S:1:pos:R:3 gdb_70502=T pbc="F F F"
C       -0.02810000       1.56950000       0.05930000
C        0.03380000       0.06010000       0.01500000
C       -0.82460000      -0.78300000       0.93840000
C        0.67440000      -0.79740000       1.10400000
C        1.45980000      -1.92270000       0.43270000
C        1.14180000      -1.74410000      -1.02980000
C        0.38910000      -0.65330000      -1.25970000
C       -0.05120000      -0.26640000      -2.60350000
O       -0.76580000       0.67730000      -2.86400000
H        0.91920000       2.01540000      -0.26440000
H       -0.81390000       1.94630000      -0.59920000
H       -0.22910000       1.91420000       1.07860000
H       -1.39420000      -0.25560000       1.69700000
H       -1.32140000      -1.65850000       0.53160000
H        1.08940000      -0.33080000       1.99010000
H        2.54080000      -1.83280000       0.60870000
H        1.17620000      -2.92060000       0.79290000
H        1.46930000      -2.43820000      -1.79760000
H        0.33320000      -0.93040000      -3.41110000
