16
Properties=species:S:1:pos:R:3 gdb_131724=T pbc="F F F"
O       -0.11040000       1.34920000       0.51620000
C       -0.04330000       0.04930000      -0.05800000
C       -1.41230000      -0.54160000       0.01280000
N       -1.72200000      -1.81360000       0.01780000
N       -3.10310000      -1.90020000       0.01940000
C       -3.56940000      -0.67700000       0.03130000
C       -5.00140000      -0.26210000       0.10480000
O       -5.09750000       1.03900000      -0.46240000
N       -2.54280000       0.22020000       0.02430000
H        0.72730000       1.79240000       0.35430000
H        0.28620000       0.10010000      -1.10780000
H        0.65160000      -0.61350000       0.47410000
H       -5.60830000      -1.00380000      -0.43100000
H       -5.33420000      -0.25860000       1.15470000
H       -5.98390000       1.37320000      -0.29830000
H       -2.60590000       1.22480000       0.02700000
