18
Properties=species:S:1:pos:R:3 gdb_46688=T pbc="F F F"
O       -0.05050000       0.16290000       0.81040000
C       -0.07100000       1.15140000       0.11440000
C       -1.30080000       1.63330000      -0.63080000
C       -1.34450000       3.17100000      -0.68660000
C       -0.03350000       3.73420000      -1.22800000
C        1.13140000       4.11400000      -0.39960000
C        1.23060000       3.28410000       0.87360000
C        1.15620000       2.02920000      -0.05510000
N        1.19020000       2.89090000      -1.30110000
H       -1.22590000       1.23990000      -1.65410000
H       -2.19360000       1.19890000      -0.17540000
H       -2.16790000       3.49250000      -1.32970000
H       -1.55920000       3.57140000       0.31070000
H       -0.12900000       4.31030000      -2.14440000
H        1.72090000       5.00080000      -0.61070000
H        2.20240000       3.36060000       1.36220000
H        0.44920000       3.42010000       1.62790000
H        2.04890000       1.40640000      -0.00040000
