23
Properties=species:S:1:pos:R:3 gdb_104177=T pbc="F F F"
C       -0.16210000       1.75130000       0.32590000
C        0.05420000       0.23800000       0.21250000
C       -1.21100000      -0.55220000      -0.14750000
O       -2.21850000      -0.38810000       0.85900000
C       -1.78110000      -0.23210000      -1.55060000
O       -2.32050000      -1.43260000      -2.08350000
C       -2.16990000      -2.50140000      -1.13710000
C       -1.98400000      -3.80390000      -1.89630000
C       -0.99660000      -2.06710000      -0.25520000
H        0.76830000       2.25810000       0.59730000
H       -0.50950000       2.18660000      -0.61770000
H       -0.89730000       1.98990000       1.10190000
H        0.82420000       0.03050000      -0.54040000
H        0.43080000      -0.14680000       1.16730000
H       -2.57920000       0.50070000       0.78300000
H       -2.56240000       0.53950000      -1.49010000
H       -0.99790000       0.14040000      -2.22600000
H       -3.07700000      -2.55950000      -0.51710000
H       -1.07690000      -3.76780000      -2.50810000
H       -1.90440000      -4.64480000      -1.19980000
H       -2.83580000      -3.98690000      -2.55740000
H       -0.04530000      -2.28150000      -0.75500000
H       -0.99580000      -2.53780000       0.73010000
