23
Properties=species:S:1:pos:R:3 gdb_88994=T pbc="F F F"
C        0.04690000       1.38580000      -0.25680000
C        0.08610000      -0.11060000      -0.03790000
C        1.40680000      -0.81470000       0.21870000
C        0.37740000      -0.68040000       1.31800000
O        0.57980000       0.22350000       2.36040000
C        1.32620000      -0.29070000       3.43690000
C        2.88040000      -0.27350000       3.38320000
C        2.86240000       0.18190000       4.86890000
C        1.38740000       0.63000000       4.67030000
H        0.74660000       1.89520000       0.40940000
H        0.30750000       1.63690000      -1.29060000
H       -0.95200000       1.78750000      -0.05460000
H       -0.63860000      -0.67130000      -0.62280000
H        1.58490000      -1.79110000      -0.21930000
H        2.28630000      -0.18470000       0.29640000
H       -0.15740000      -1.58220000       1.62120000
H        0.95990000      -1.29360000       3.70400000
H        3.40430000      -1.19640000       3.12500000
H        3.22190000       0.53140000       2.72600000
H        2.94390000      -0.66400000       5.55700000
H        3.58320000       0.94380000       5.17080000
H        1.32690000       1.67400000       4.34990000
H        0.67010000       0.46090000       5.47620000
