24
Properties=species:S:1:pos:R:3 gdb_101327=T pbc="F F F"
C        0.43290000       1.14550000       0.36570000
C        0.12340000      -0.35440000       0.35990000
C       -1.32510000      -0.73310000       0.00720000
C       -1.45510000      -2.25710000      -0.09240000
N       -2.22890000      -0.25870000       1.06420000
C       -2.77310000       1.09540000       1.00810000
C       -3.66210000      -0.08460000       0.83370000
C       -4.38910000      -0.33160000      -0.47450000
O       -3.78950000       0.38870000      -1.54150000
H        1.50060000       1.31860000       0.53620000
H        0.17140000       1.61050000      -0.59170000
H       -0.11500000       1.66870000       1.15350000
H        0.77980000      -0.85050000      -0.36660000
H        0.36020000      -0.78410000       1.34110000
H       -1.58010000      -0.28950000      -0.96650000
H       -2.47130000      -2.56120000      -0.35870000
H       -0.77660000      -2.65260000      -0.85480000
H       -1.20760000      -2.72280000       0.86720000
H       -2.76560000       1.65580000       1.94030000
H       -2.58550000       1.68350000       0.11340000
H       -4.26750000      -0.40730000       1.68120000
H       -4.41120000      -1.41090000      -0.69200000
H       -5.43490000      -0.01430000      -0.32790000
H       -4.20720000       0.11180000      -2.36220000
