21
Properties=species:S:1:pos:R:3 gdb_70740=T pbc="F F F"
C       -0.00670000       1.50090000       0.04240000
C       -0.00350000      -0.01420000      -0.01150000
C       -0.84610000      -0.79070000       0.97410000
C        0.65940000      -0.75680000       1.12480000
C        1.51710000      -1.97130000       0.83000000
O        2.62920000      -1.66060000      -0.00520000
C        2.33530000      -1.62760000      -1.37530000
O        1.56400000      -0.53900000      -1.81140000
C        0.19960000      -0.58780000      -1.40590000
H        0.91510000       1.89800000      -0.39530000
H       -0.85310000       1.91660000      -0.51750000
H       -0.07700000       1.86420000       1.07230000
H       -1.44860000      -0.23740000       1.68690000
H       -1.29920000      -1.72070000       0.64270000
H        1.04780000      -0.12450000       1.91850000
H        1.93880000      -2.37320000       1.75670000
H        0.91960000      -2.77330000       0.36940000
H        3.29590000      -1.54020000      -1.88790000
H        1.83110000      -2.56980000      -1.66490000
H       -0.16970000      -1.62240000      -1.46790000
H       -0.35800000       0.00320000      -2.14070000
