21
Properties=species:S:1:pos:R:3 gdb_78590=T pbc="F F F"
C       -0.03390000       1.63240000       0.03030000
C        0.11400000       0.10970000       0.02350000
C        0.82400000      -0.63160000      -1.10960000
C        2.31380000      -0.78910000      -0.73330000
C        2.52760000      -0.20620000       0.65780000
O        2.96930000       1.10930000       0.88550000
C        1.07610000      -0.66480000       0.97900000
C        1.26390000      -1.73470000      -0.18310000
C        1.13710000      -3.22190000      -0.22300000
H        0.82250000       2.14840000      -0.41730000
H       -0.90690000       1.93140000      -0.56010000
H       -0.17230000       2.02090000       1.04460000
H       -0.87990000      -0.33630000       0.14730000
H        0.51270000      -0.72780000      -2.14340000
H        3.05850000      -1.00910000      -1.48880000
H        3.22840000      -0.84040000       1.20990000
H        2.46860000       1.70180000       0.31910000
H        0.77940000      -0.87000000       2.00660000
H        0.12260000      -3.54870000       0.03380000
H        1.36350000      -3.60200000      -1.22510000
H        1.82750000      -3.70590000       0.47750000
