22
Properties=species:S:1:pos:R:3 gdb_15429=T pbc="F F F"
C       -0.41810000       1.46440000      -0.11780000
C       -0.22710000      -0.04590000      -0.27410000
C        1.11190000      -0.41690000      -0.92780000
C        1.28200000      -1.91140000      -1.05880000
O        0.50500000      -2.57850000      -2.06460000
C        1.93470000      -2.60970000      -2.17930000
C        2.54790000      -1.95210000      -3.39270000
C        2.33360000      -2.78890000      -4.66040000
H        0.36990000       1.90240000       0.50550000
H       -0.38870000       1.97030000      -1.08930000
H       -1.37990000       1.69800000       0.34920000
H       -0.29610000      -0.52960000       0.70920000
H       -1.03860000      -0.46590000      -0.87960000
H        1.18130000       0.05930000      -1.91090000
H        1.94070000      -0.02260000      -0.32310000
H        1.27850000      -2.43760000      -0.09970000
H        2.35930000      -3.59260000      -1.95390000
H        2.12150000      -0.95510000      -3.53420000
H        3.62220000      -1.81820000      -3.20910000
H        1.26520000      -2.92180000      -4.85480000
H        2.78300000      -2.30580000      -5.53290000
H        2.78200000      -3.78340000      -4.56000000
