21
Properties=species:S:1:pos:R:3 gdb_79758=T pbc="F F F"
C       -0.20600000       1.54200000       0.02550000
C       -0.00700000       0.02100000      -0.00100000
C        0.62340000      -0.53310000      -1.27520000
C        2.12600000      -0.44150000      -1.44050000
C        2.93600000       0.19420000      -0.31930000
C        2.38450000      -0.44920000       0.94540000
C        1.65810000      -1.73190000       0.57800000
C        1.49420000      -1.72700000      -0.93420000
C        0.88130000      -0.54080000       1.10520000
H        0.74250000       2.07630000      -0.07550000
H       -0.86030000       1.86490000      -0.79140000
H       -0.66990000       1.85920000       0.96570000
H       -0.99670000      -0.44800000       0.10480000
H        0.02680000      -0.52960000      -2.18210000
H        2.50870000      -0.38240000      -2.45400000
H        3.99680000      -0.06260000      -0.43500000
H        2.86940000       1.28800000      -0.30850000
H        2.97540000      -0.39630000       1.85370000
H        1.77410000      -2.65600000       1.12880000
H        1.48890000      -2.64750000      -1.50300000
H        0.49280000      -0.54340000       2.11880000
