19
Properties=species:S:1:pos:R:3 gdb_119714=T pbc="F F F"
C       -0.00760000       1.53530000      -0.05920000
C       -0.15940000       0.02800000      -0.14630000
O        0.86520000      -0.47220000      -1.01080000
C        0.82020000      -1.82880000      -1.19890000
C        1.55090000      -2.86830000      -0.34750000
O        1.83590000      -3.67050000      -1.53420000
C        1.28000000      -2.65660000      -2.38780000
C       -0.18530000      -2.54850000      -2.08660000
O       -0.93130000      -3.65430000      -1.68970000
H        0.97410000       1.80120000       0.34260000
H       -0.10700000       1.98940000      -1.04920000
H       -0.77650000       1.95610000       0.59540000
H       -0.06550000      -0.43120000       0.84900000
H       -1.14530000      -0.25040000      -0.54470000
H        2.48080000      -2.48790000       0.08670000
H        0.97320000      -3.42430000       0.39830000
H        1.79040000      -2.43680000      -3.31840000
H       -0.73630000      -1.87390000      -2.73730000
H       -0.30010000      -4.38270000      -1.60970000
