21
Properties=species:S:1:pos:R:3 gdb_103378=T pbc="F F F"
C        0.07340000       1.38670000      -0.08100000
O       -0.01090000      -0.00450000       0.15300000
C       -1.29950000      -0.56300000       0.06650000
C       -2.27140000       0.00010000       1.09620000
C       -1.91810000      -0.80600000      -1.35340000
C       -0.75080000      -1.38690000      -2.17320000
C       -0.25830000      -2.42810000      -1.11630000
C       -1.29810000      -2.11170000      -0.02670000
O       -2.53530000      -2.00870000      -0.79910000
H        1.13630000       1.63450000      -0.13300000
H       -0.40020000       1.67290000      -1.03180000
H       -0.38290000       1.97630000       0.72520000
H       -2.49920000       1.05330000       0.90440000
H       -3.20780000      -0.55810000       1.06790000
H       -1.83890000      -0.07570000       2.09910000
H       -2.62760000      -0.12790000      -1.82910000
H       -1.11350000      -1.85160000      -3.09220000
H        0.00700000      -0.64250000      -2.42560000
H       -0.35610000      -3.46000000      -1.45910000
H        0.76520000      -2.24970000      -0.78400000
H       -1.37290000      -2.75460000       0.85090000
