16
Properties=species:S:1:pos:R:3 gdb_48819=T pbc="F F F"
N        0.10280000       1.28010000       0.25790000
C        0.05720000       0.04280000       0.01190000
O        1.12210000      -0.72220000      -0.38910000
C        0.68200000      -1.98810000      -0.91690000
C       -0.75570000      -2.16730000      -0.46530000
C       -1.01940000      -2.04820000       0.98760000
C       -1.15940000      -0.80520000       0.10370000
C       -2.51320000      -0.22920000      -0.10090000
O       -3.52250000      -0.89380000      -0.09160000
H        1.03420000       1.65460000       0.07210000
H        0.75490000      -1.96240000      -2.01020000
H        1.35910000      -2.75880000      -0.53620000
H       -1.45420000      -2.70330000      -1.09580000
H       -1.96570000      -2.43270000       1.35040000
H       -0.19070000      -2.06750000       1.68760000
H       -2.52620000       0.86590000      -0.26450000
