16
Properties=species:S:1:pos:R:3 gdb_127927=T pbc="F F F"
C        0.24900000       1.39380000       0.17680000
N        0.16670000      -0.05070000       0.12040000
C        0.42530000      -0.60420000      -1.01210000
N        0.77840000       0.01050000      -2.19500000
N        1.04690000      -0.62320000      -3.37940000
C        0.92650000      -1.91450000      -3.35610000
N        1.08620000      -2.63510000      -4.51960000
N        0.60000000      -2.69260000      -2.24570000
C        0.37090000      -2.05610000      -1.15220000
H        1.25920000       1.77180000      -0.06170000
H       -0.45120000       1.88720000      -0.52060000
H        0.00220000       1.73640000       1.18450000
H        0.87420000       1.01050000      -2.24510000
H        1.57320000      -2.15320000      -5.25950000
H        1.36440000      -3.59330000      -4.37560000
H        0.12050000      -2.61300000      -0.25140000
