19
Properties=species:S:1:pos:R:3 gdb_105550=T pbc="F F F"
C       -0.00890000       1.69020000       0.02320000
C        0.08470000       0.16470000       0.10560000
C        0.67060000      -0.49590000      -1.15960000
C        0.57360000      -2.06980000      -1.22260000
C       -0.20370000      -2.00290000      -2.56860000
C       -0.29870000      -0.48470000      -2.39580000
O       -0.93720000       0.37880000      -2.91750000
C        1.98950000       0.00330000      -1.50560000
C        3.08300000       0.39910000      -1.81470000
H        0.98190000       2.13550000      -0.10320000
H       -0.62760000       1.99670000      -0.82410000
H       -0.45060000       2.09530000       0.93850000
H        0.70370000      -0.13490000       0.96000000
H       -0.91170000      -0.26240000       0.27450000
H        1.53270000      -2.58470000      -1.25330000
H       -0.02510000      -2.46840000      -0.40080000
H        0.40300000      -2.26730000      -3.44050000
H       -1.15840000      -2.52970000      -2.64070000
H        4.04610000       0.75650000      -2.08390000
