20
Properties=species:S:1:pos:R:3 gdb_14362=T pbc="F F F"
C       -0.05920000       1.53850000       0.08690000
C        1.46360000       1.26780000       0.06070000
C        1.18220000       0.06430000       1.03470000
C        0.09580000      -0.01270000      -0.07910000
C       -0.92680000      -0.91320000      -0.72820000
C       -0.89190000      -0.39040000      -2.21150000
C        0.45340000       0.41320000      -2.43330000
C        1.21210000       0.25120000      -1.10760000
H       -0.47970000       1.87940000       1.03740000
H       -0.48380000       2.10080000      -0.74630000
H        2.26750000       1.99980000       0.15920000
H        1.92560000      -0.73830000       1.04930000
H        0.85400000       0.32750000       2.04420000
H       -0.60300000      -1.95920000      -0.67930000
H       -1.93130000      -0.85650000      -0.29850000
H       -0.98090000      -1.22100000      -2.91710000
H       -1.74950000       0.26330000      -2.39520000
H        1.02610000       0.00350000      -3.26920000
H        0.23640000       1.45350000      -2.68820000
H        1.96700000      -0.54100000      -1.16680000
