21
Properties=species:S:1:pos:R:3 gdb_105264=T pbc="F F F"
C       -0.04990000       1.43420000       0.19870000
N        0.05270000      -0.01460000       0.35730000
C        1.26710000      -0.67480000      -0.11730000
C        0.97020000      -0.58100000       1.34560000
C        1.82740000       0.30410000       2.25110000
O        2.76350000       1.14200000       1.59270000
C        0.41500000      -1.78480000       2.06990000
C       -0.88190000      -1.67940000       2.78700000
N       -0.77000000      -2.46640000       1.54780000
H        0.90420000       1.96240000       0.31490000
H       -0.45350000       1.64390000      -0.79670000
H       -0.76010000       1.82490000       0.93460000
H        1.12390000      -1.61510000      -0.64410000
H        2.05420000      -0.03690000      -0.51440000
H        1.17860000       0.97780000       2.82180000
H        2.32860000      -0.34530000       2.98450000
H        3.43320000       0.57700000       1.19420000
H        1.17640000      -2.45440000       2.46810000
H       -1.05890000      -2.25510000       3.69110000
H       -1.40340000      -0.72640000       2.73880000
H       -1.12490000      -1.88810000       0.78380000
