15
Properties=species:S:1:pos:R:3 gdb_126327=T pbc="F F F"
C       -0.15670000       1.54760000      -0.02250000
C        0.08270000       0.02590000       0.03110000
C        0.76450000      -0.49500000      -1.19810000
C        2.03850000      -0.93020000      -1.23580000
N        2.65080000      -1.39180000      -2.39680000
N        2.07220000      -1.44800000      -3.48100000
O        0.68530000      -1.01540000      -3.54300000
C       -0.00110000      -0.54050000      -2.45300000
O       -1.15000000      -0.20720000      -2.58100000
H        0.78890000       2.09210000      -0.10320000
H       -0.78430000       1.80650000      -0.87730000
H       -0.66230000       1.87610000       0.88950000
H        0.68210000      -0.23130000       0.91030000
H       -0.88410000      -0.48040000       0.12480000
H        2.68030000      -0.95010000      -0.36270000
