18
Properties=species:S:1:pos:R:3 gdb_30096=T pbc="F F F"
C       -0.09410000       1.51870000      -0.19800000
C       -0.01440000       0.02530000       0.01720000
C        1.26940000      -0.72460000      -0.17180000
C        0.70120000      -0.58790000       1.22590000
C        1.39670000       0.23940000       2.21630000
N        2.29710000       1.16110000       2.04460000
C        2.58480000       1.61590000       3.32490000
C        1.83810000       0.92990000       4.21810000
O        1.06590000       0.04030000       3.52110000
H        0.81900000       2.01510000       0.13820000
H       -0.23470000       1.74220000      -1.26120000
H       -0.93830000       1.95270000       0.34890000
H       -0.91600000      -0.51720000      -0.25660000
H        1.25260000      -1.70820000      -0.62790000
H        2.16070000      -0.13970000      -0.37160000
H        0.22720000      -1.45830000       1.66480000
H        3.30960000       2.39460000       3.50200000
H        1.73170000       0.92620000       5.28880000
