21
Properties=species:S:1:pos:R:3 gdb_55273=T pbc="F F F"
C       -0.47470000       1.32880000       0.75480000
C       -0.02730000       0.18130000      -0.13170000
O        1.09540000       0.10990000      -0.58260000
C       -1.06080000      -0.89360000      -0.38190000
C       -0.80230000      -1.97550000      -1.45350000
C       -1.38120000      -3.03870000      -0.48290000
C       -1.17600000      -2.03590000       0.69380000
C        0.09470000      -2.30540000       1.49340000
O       -2.28000000      -1.80360000       1.54740000
H        0.38330000       1.92370000       1.07080000
H       -1.16960000       1.96790000       0.19620000
H       -1.02710000       0.95000000       1.62160000
H       -2.05700000      -0.45130000      -0.47590000
H       -1.30700000      -1.84600000      -2.41210000
H        0.26870000      -2.09160000      -1.63060000
H       -2.44860000      -3.20670000      -0.64560000
H       -0.86950000      -4.00270000      -0.41320000
H        0.96940000      -2.39110000       0.84360000
H        0.28320000      -1.50470000       2.21550000
H       -0.00650000      -3.24890000       2.04450000
H       -2.25130000      -2.44670000       2.26440000
