19
Properties=species:S:1:pos:R:3 gdb_71964=T pbc="F F F"
O       -0.04350000       1.41810000       0.01620000
C        0.01640000       0.01780000      -0.01910000
C        0.30990000      -0.71610000      -1.35190000
C       -0.65230000      -1.81180000      -0.83640000
O       -0.00020000      -2.67560000       0.10580000
C        0.00970000      -1.94560000       1.34300000
C       -1.42880000      -1.40680000       1.43870000
C       -1.35710000      -0.74600000       0.06760000
C        0.82400000      -0.65160000       1.12770000
H        0.85700000       1.76040000       0.00090000
H       -0.12760000      -0.17480000      -2.19640000
H        1.33740000      -1.01370000      -1.57910000
H       -1.20890000      -2.42120000      -1.54890000
H        0.36330000      -2.61140000       2.13040000
H       -2.17070000      -2.20700000       1.50270000
H       -1.57500000      -0.70040000       2.26010000
H       -2.22130000      -0.23070000      -0.34510000
H        1.86630000      -0.84750000       0.85960000
H        0.79690000      -0.02230000       2.02350000
