17
Properties=species:S:1:pos:R:3 gdb_74370=T pbc="F F F"
C        0.03560000       1.48010000      -0.04440000
C       -0.05700000      -0.01450000       0.03110000
N       -1.18170000      -0.60890000      -0.03720000
C       -1.20080000      -2.07330000      -0.01740000
C        0.15420000      -2.69630000      -0.40650000
C        1.24230000      -1.98150000       0.37790000
O        1.17530000      -0.56410000       0.16280000
C       -1.63020000      -2.54850000       1.31020000
N       -1.93940000      -2.93850000       2.35320000
H        0.69500000       1.77460000      -0.86670000
H       -0.95690000       1.90180000      -0.19380000
H        0.47170000       1.87520000       0.87840000
H       -1.96920000      -2.39640000      -0.72960000
H        0.17590000      -3.77030000      -0.20420000
H        0.30800000      -2.54680000      -1.47980000
H        1.13750000      -2.17720000       1.45210000
H        2.24450000      -2.28200000       0.06590000
