15
Properties=species:S:1:pos:R:3 gdb_45693=T pbc="F F F"
O        0.00850000       0.23720000       0.82080000
C       -0.00480000       1.21040000       0.12470000
C       -1.29880000       1.89160000      -0.35550000
N       -1.22920000       3.35670000      -0.47730000
C       -0.10570000       3.68310000      -0.95030000
N        0.61010000       4.86160000      -1.10320000
C        1.90420000       4.13400000      -0.94350000
C        1.10480000       2.82190000      -1.20920000
O        1.18950000       1.76430000      -0.27170000
H       -1.58200000       1.42550000      -1.31110000
H       -2.06900000       1.61780000       0.36640000
H        0.37570000       5.70640000      -0.59760000
H        2.66850000       4.41130000      -1.67160000
H        2.30640000       4.15900000       0.07350000
H        1.22460000       2.44110000      -2.22740000
