18
Properties=species:S:1:pos:R:3 gdb_2332=T pbc="F F F"
C        0.09580000       1.54620000      -0.22470000
C        0.02440000       0.06320000       0.05110000
N        1.29480000      -0.68320000       0.07970000
C        0.48260000      -0.58850000       1.30970000
C        1.09330000       0.13910000       2.48460000
C        2.11040000      -0.72610000       3.22070000
O        2.60370000       0.02220000       4.32220000
H        0.97430000       1.99710000       0.24100000
H        0.16070000       1.73000000      -1.30260000
H       -0.79830000       2.05640000       0.15020000
H       -0.81600000      -0.43180000      -0.43600000
H        1.18610000      -1.59550000      -0.35410000
H       -0.07280000      -1.48440000       1.59140000
H        1.59520000       1.05200000       2.15390000
H        0.30580000       0.43650000       3.18810000
H        1.63140000      -1.66090000       3.55860000
H        2.91690000      -1.00210000       2.52480000
H        3.29400000      -0.49260000       4.74960000
