18
Properties=species:S:1:pos:R:3 gdb_33106=T pbc="F F F"
C       -0.38130000       1.45220000      -0.48660000
O       -0.37410000       0.05300000      -0.61050000
C       -0.91160000      -0.59850000       0.52100000
C       -0.86770000      -2.07850000       0.31160000
C       -0.38490000      -2.72450000      -0.79490000
N       -0.52940000      -4.08630000      -0.58250000
C       -1.09470000      -4.29220000       0.63970000
O       -1.31450000      -5.57710000       1.02270000
C       -1.32480000      -3.07650000       1.23630000
H        0.04950000       1.86540000      -1.40210000
H       -1.40260000       1.84860000      -0.36460000
H        0.21950000       1.79160000       0.37300000
H       -0.34250000      -0.31540000       1.42590000
H       -1.94980000      -0.25970000       0.69460000
H        0.04300000      -2.33680000      -1.70220000
H       -0.26680000      -4.82200000      -1.21400000
H       -1.71340000      -5.56490000       1.89760000
H       -1.76350000      -2.91450000       2.20930000
