19
Properties=species:S:1:pos:R:3 gdb_117896=T pbc="F F F"
C       -0.09620000       1.42860000      -0.23240000
C        0.02320000      -0.08730000       0.03740000
C        0.79560000      -0.42640000       1.31750000
C        2.26970000      -0.04200000       1.26360000
O        2.87300000      -0.51420000       2.45820000
C       -1.37280000      -0.70770000       0.07150000
O       -1.85500000      -1.22320000       1.05580000
C       -2.11750000      -0.64730000      -1.18060000
C       -2.72290000      -0.61230000      -2.22080000
H        0.88860000       1.87290000      -0.39640000
H       -0.70320000       1.62550000      -1.12000000
H       -0.56060000       1.93590000       0.61980000
H        0.53000000      -0.53670000      -0.82990000
H        0.32550000       0.06360000       2.17650000
H        0.73040000      -1.50170000       1.50970000
H        2.74030000      -0.49460000       0.37380000
H        2.38310000       1.04910000       1.17110000
H        3.79570000      -0.24380000       2.45730000
H       -3.27200000      -0.58870000      -3.13080000
