17
Properties=species:S:1:pos:R:3 gdb_17487=T pbc="F F F"
C        0.03560000       1.49120000       0.11820000
C       -0.02230000      -0.00830000      -0.00990000
C        0.23860000      -0.70100000      -1.37590000
N       -0.91680000      -1.64230000      -1.17010000
C       -0.82440000      -2.13840000       0.23650000
C        0.49500000      -2.00910000       0.98260000
O        0.78580000      -0.60950000       1.00130000
C       -1.36360000      -0.79270000      -0.00540000
H        1.06140000       1.84580000      -0.02070000
H       -0.60120000       1.96810000      -0.63190000
H       -0.29960000       1.80090000       1.11270000
H        0.01130000      -0.06400000      -2.23450000
H        1.21760000      -1.17080000      -1.51750000
H       -1.47210000      -2.98580000       0.43040000
H        0.40470000      -2.36860000       2.01420000
H        1.30670000      -2.56920000       0.49780000
H       -2.37930000      -0.44340000       0.13480000
