13
Properties=species:S:1:pos:R:3 gdb_128568=T pbc="F F F"
C        0.07740000       1.40790000       0.03490000
O        0.18640000      -0.02020000       0.06930000
C       -0.96960000      -0.68390000      -0.15020000
C       -0.73460000      -2.12800000      -0.09240000
C       -1.74170000      -2.96360000      -0.28640000
O       -2.60840000      -3.70650000      -0.45520000
N       -4.79030000      -1.17990000       0.67340000
N       -5.38040000      -0.26020000       0.56040000
O       -2.03110000      -0.14350000      -0.36320000
H        1.08200000       1.78400000       0.22900000
H       -0.27550000       1.74540000      -0.94270000
H       -0.61820000       1.76130000       0.80010000
H        0.24600000      -2.53970000       0.10310000
