19
Properties=species:S:1:pos:R:3 gdb_65579=T pbc="F F F"
C        0.40610000       1.31650000       0.02510000
C       -0.03940000      -0.16340000      -0.00040000
C        0.54990000      -0.96180000      -1.21400000
C        1.61900000      -1.86780000      -0.62540000
C        2.68850000      -1.26540000       0.21080000
N        1.52640000      -1.90460000       0.84460000
C        0.45980000      -0.98620000       1.25190000
C       -1.50540000      -0.18250000      -0.04960000
N       -2.66130000      -0.19310000      -0.08100000
H        1.49460000       1.40010000       0.03700000
H        0.03380000       1.84650000      -0.85610000
H        0.01520000       1.82070000       0.91320000
H       -0.22720000      -1.57000000      -1.68310000
H        0.93730000      -0.28240000      -1.97880000
H        1.79800000      -2.81660000      -1.12310000
H        3.62400000      -1.79800000       0.35570000
H        2.78310000      -0.18420000       0.24310000
H        0.80430000      -0.32020000       2.04890000
H       -0.36080000      -1.58760000       1.65130000
