17
Properties=species:S:1:pos:R:3 gdb_18356=T pbc="F F F"
C       -0.09570000       1.58960000      -0.13930000
C       -0.04920000       0.06340000      -0.03410000
C        0.95930000      -0.56040000      -1.08730000
N        2.30720000      -0.57750000      -0.43740000
C        2.00850000      -0.57090000       0.78710000
O        2.63240000      -0.20660000       1.94920000
C        1.30820000       0.24170000       2.45590000
C        0.60310000      -0.47480000       1.26190000
H        0.90490000       2.02660000      -0.05350000
H       -0.50400000       1.89260000      -1.10850000
H       -0.72770000       2.02640000       0.64070000
H       -1.05670000      -0.34010000      -0.17160000
H        0.65630000      -1.57300000      -1.38420000
H        1.01520000       0.04470000      -1.99710000
H        1.11830000      -0.16510000       3.45000000
H        1.26970000       1.33290000       2.45970000
H        0.16900000      -1.42500000       1.58250000
