19
Properties=species:S:1:pos:R:3 gdb_105965=T pbc="F F F"
C        0.07500000       1.49460000      -0.01440000
C        0.02130000       0.00320000       0.01280000
C        0.19130000      -1.01390000      -1.10860000
C        0.75330000      -2.05220000      -0.09460000
C        0.58750000      -1.04080000       1.03090000
C       -0.55010000      -1.99790000       0.69180000
C       -1.20930000      -3.03410000       1.53640000
O       -1.75530000      -4.12070000       0.79480000
C       -1.11670000      -0.95200000      -0.32630000
H        1.10880000       1.85920000      -0.04380000
H       -0.43890000       1.88190000      -0.90120000
H       -0.40900000       1.93170000       0.86720000
H        0.36990000      -0.85020000      -2.16330000
H        1.45540000      -2.86940000      -0.19250000
H        1.13790000      -0.93650000       1.95770000
H       -0.46720000      -3.47830000       2.21000000
H       -1.98140000      -2.56700000       2.17060000
H       -2.37170000      -3.75290000       0.15350000
H       -2.11850000      -0.72720000      -0.67230000
