19
Properties=species:S:1:pos:R:3 gdb_70923=T pbc="F F F"
C       -0.23590000       1.48810000      -0.06200000
C        0.05220000       0.01970000      -0.03890000
C        0.51440000      -0.93130000      -1.14760000
C        0.05740000      -1.77110000       0.07760000
C        0.47340000      -3.19760000       0.35190000
C        1.91790000      -2.87830000       0.78980000
C        2.13480000      -1.58410000       1.08870000
C        0.81530000      -0.85430000       1.03210000
O       -1.13880000      -0.90400000       0.18030000
H        0.68870000       2.04630000      -0.24020000
H       -0.94620000       1.72850000      -0.85890000
H       -0.65930000       1.81350000       0.89280000
H       -0.15120000      -0.98750000      -2.01020000
H        1.57240000      -0.93910000      -1.41520000
H       -0.09360000      -3.66490000       1.16780000
H        0.42760000      -3.86290000      -0.51610000
H        2.66980000      -3.65860000       0.84920000
H        3.08140000      -1.18730000       1.43880000
H        0.34690000      -0.74920000       2.01720000
