18
Properties=species:S:1:pos:R:3 gdb_78280=T pbc="F F F"
C       -0.16460000       1.47220000      -0.06080000
N        0.11610000       0.04480000       0.03350000
C        1.44780000      -0.48860000      -0.15980000
C        2.55830000       0.37820000       0.39040000
C        3.20120000      -0.33560000       1.57000000
O        4.19940000       0.36810000       2.26400000
C        1.86350000       0.31110000       1.77980000
O        1.67580000       1.27480000       2.74180000
C        0.75640000      -0.52990000       1.19960000
H        0.60320000       2.11470000       0.38710000
H       -0.27730000       1.73640000      -1.11720000
H       -1.11480000       1.67150000       0.44360000
H        1.57290000      -1.31810000      -0.84780000
H        3.04340000       1.22040000      -0.08970000
H        3.33620000      -1.41910000       1.56650000
H        4.97360000       0.45640000       1.69940000
H        2.55220000       1.47340000       3.10160000
H        0.27790000      -1.36880000       1.69340000
