18
Properties=species:S:1:pos:R:3 gdb_89670=T pbc="F F F"
C       -0.07760000       1.52790000      -0.05350000
C        0.11860000       0.03100000       0.03390000
O        1.21110000      -0.46650000      -0.80650000
C        1.74900000      -1.19260000       0.29570000
C        2.19120000      -0.24650000       1.38130000
C        0.73120000      -0.62280000       1.28290000
C       -0.04380000      -1.27160000       2.38990000
C        2.24050000      -2.51750000       0.09970000
N        2.63650000      -3.59680000      -0.03400000
H        0.81160000       2.07250000       0.27360000
H       -0.29650000       1.81740000      -1.08590000
H       -0.92470000       1.83240000       0.57020000
H       -0.80110000      -0.49660000      -0.25080000
H        2.71430000      -0.70160000       2.21630000
H        2.56050000       0.72790000       1.07650000
H       -0.44190000      -0.51890000       3.08030000
H       -0.88600000      -1.85140000       1.99870000
H        0.59000000      -1.94880000       2.97010000
