19
Properties=species:S:1:pos:R:3 gdb_32662=T pbc="F F F"
C        0.00420000       1.54630000       0.02300000
C        0.06690000       0.01740000      -0.00170000
N        0.69150000      -0.50640000      -1.20670000
C        0.07290000      -0.86730000      -2.40020000
C        1.07850000      -1.23920000      -3.24190000
N        2.31160000      -1.11710000      -2.62140000
C        2.02550000      -0.67600000      -1.42390000
O        2.87750000      -0.38460000      -0.42870000
C        4.25140000      -0.62920000      -0.73110000
H        1.01120000       1.97010000      -0.01680000
H       -0.56500000       1.92830000      -0.82950000
H       -0.47870000       1.89050000       0.94280000
H        0.63690000      -0.35160000       0.85520000
H       -0.93730000      -0.41210000       0.06310000
H       -0.99840000      -0.83020000      -2.50780000
H        1.00010000      -1.59410000      -4.25780000
H        4.80750000      -0.34760000       0.16390000
H        4.41410000      -1.68500000      -0.96680000
H        4.57200000      -0.02800000      -1.58680000
