15
Properties=species:S:1:pos:R:3 gdb_21024=T pbc="F F F"
C       -0.38710000       1.34340000      -0.09090000
N        0.00230000      -0.04600000       0.01600000
C        0.58350000      -0.84730000      -0.89620000
N        0.75930000      -2.05800000      -0.40040000
C        0.24680000      -1.94540000       0.85910000
C        0.26550000      -3.11570000       1.79850000
O        0.10710000      -4.33440000       1.10340000
N       -0.22710000      -0.74620000       1.15670000
H        0.12870000       1.93750000       0.66740000
H       -0.11720000       1.70870000      -1.08330000
H       -1.46580000       1.44370000       0.05210000
H        0.85280000      -0.51090000      -1.88640000
H        1.21030000      -3.10240000       2.36870000
H       -0.54940000      -3.02110000       2.52230000
H        0.56050000      -4.22300000       0.25800000
