18
Properties=species:S:1:pos:R:3 gdb_98882=T pbc="F F F"
O       -0.03090000       1.42650000       0.01030000
C       -0.00250000       0.02330000       0.00320000
C       -1.44940000      -0.48480000       0.01110000
O       -2.41150000       0.25580000       0.02240000
N       -1.59490000      -1.84730000       0.00450000
C       -2.93660000      -2.46480000       0.01250000
C       -2.65840000      -3.99420000       0.00440000
C       -1.14760000      -4.07640000      -0.00700000
C       -0.61930000      -2.85220000      -0.00640000
H        0.87910000       1.73740000       0.00410000
H        0.50630000      -0.37990000      -0.88880000
H        0.51890000      -0.38850000       0.88390000
H       -3.48510000      -2.13300000       0.89750000
H       -3.49880000      -2.12640000      -0.86140000
H       -3.08900000      -4.48780000       0.88330000
H       -3.10180000      -4.48080000      -0.87200000
H       -0.58440000      -4.99800000      -0.01470000
H        0.42590000      -2.58040000      -0.01330000
