13
Properties=species:S:1:pos:R:3 gdb_42384=T pbc="F F F"
N        0.18750000       1.46840000       0.00550000
C        0.05380000       0.20130000       0.00160000
N       -1.19570000      -0.43220000       0.01000000
C       -2.46320000       0.14570000       0.02640000
O       -2.70180000       1.32670000       0.03640000
C       -3.50730000      -0.87450000       0.03020000
C       -4.39340000      -1.68720000       0.03380000
C        1.14260000      -0.74410000      -0.01270000
C        2.06710000      -1.51360000      -0.02490000
H        1.17830000       1.70610000      -0.00250000
H       -1.17390000      -1.44030000       0.00390000
H       -5.18810000      -2.39340000       0.03740000
H        2.89230000      -2.18350000      -0.03560000
