19
Properties=species:S:1:pos:R:3 gdb_51667=T pbc="F F F"
O       -0.29250000       0.19630000       0.03080000
C       -0.02960000       1.37170000       0.00630000
C        1.37250000       1.93370000      -0.11420000
C        1.49560000       2.87030000      -1.31330000
O        0.63880000       4.03760000      -1.20820000
C        1.72580000       4.92450000      -1.55480000
C        2.38630000       5.56770000      -0.31700000
C        3.39200000       4.37350000      -0.25200000
C        2.74730000       3.75000000      -1.52100000
H       -0.82640000       2.14380000       0.07010000
H        1.58640000       2.49420000       0.80470000
H        2.07960000       1.10260000      -0.19890000
H        1.25140000       2.31410000      -2.23060000
H        1.49280000       5.54400000      -2.42450000
H        2.86440000       6.52950000      -0.52070000
H        1.70500000       5.68130000       0.52890000
H        4.42800000       4.67590000      -0.41850000
H        3.36640000       3.76310000       0.65380000
H        3.40880000       3.47460000      -2.34110000
