19
Properties=species:S:1:pos:R:3 gdb_38465=T pbc="F F F"
C       -0.02830000       1.65220000      -0.05030000
C        1.58770000       1.64960000      -0.05760000
O        2.43350000       1.56230000       1.16540000
C        1.67680000       0.33350000       1.44650000
C        1.41060000      -1.19520000       1.80530000
C       -0.08280000      -0.60960000       1.54200000
C        0.42670000       0.60860000       2.31080000
C       -0.09090000       0.04590000       0.08030000
C        1.40660000       0.16320000      -0.07620000
H       -0.61110000       2.30620000       0.60050000
H       -0.28900000       1.88930000      -1.08690000
H        2.06840000       2.29580000      -0.79100000
H        1.83210000      -1.94620000       1.13530000
H        1.50670000      -1.50060000       2.84840000
H       -0.93920000      -1.19510000       1.87720000
H        0.65960000       0.39460000       3.35710000
H       -0.10200000       1.55370000       2.25060000
H       -0.72080000      -0.44480000      -0.66220000
H        2.07610000      -0.53750000      -0.57290000
