17
Properties=species:S:1:pos:R:3 gdb_12642=T pbc="F F F"
C       -0.02770000       1.40220000       0.00890000
N       -0.02250000      -0.03820000      -0.00060000
C       -1.21100000      -0.85740000       0.00360000
C       -0.65250000      -2.25580000      -0.00710000
C        0.68290000      -2.22820000      -0.01560000
C        1.68110000      -3.33520000      -0.02750000
C        1.12810000      -0.79620000      -0.01110000
O        2.26910000      -0.37270000      -0.01580000
H        1.01400000       1.72970000       0.00230000
H       -0.53680000       1.81050000      -0.87360000
H       -0.52190000       1.79910000       0.90490000
H       -1.83350000      -0.66940000       0.89250000
H       -1.84570000      -0.66080000      -0.87470000
H       -1.28850000      -3.13190000      -0.00750000
H        1.19940000      -4.31600000      -0.03040000
H        2.33010000      -3.25700000      -0.90650000
H        2.33990000      -3.26710000       0.84500000
