20
Properties=species:S:1:pos:R:3 gdb_107358=T pbc="F F F"
C       -0.42220000       1.56530000      -0.19870000
C       -0.07380000       0.08620000       0.01070000
C        0.83750000      -0.47220000      -1.06060000
C        0.25100000      -0.97890000      -2.37200000
C        0.89440000      -1.93380000      -1.40580000
O        2.22580000      -2.31540000      -1.69330000
C        3.05670000      -1.22390000      -1.63000000
N        4.27900000      -1.23960000      -1.93950000
C        2.28550000      -0.00980000      -1.13370000
H        0.47560000       2.19180000      -0.18330000
H       -0.91830000       1.71980000      -1.16250000
H       -1.09210000       1.92560000       0.58770000
H        0.40220000      -0.04450000       0.99170000
H       -0.99790000      -0.50470000       0.03820000
H       -0.83090000      -1.00060000      -2.45200000
H        0.77280000      -0.77870000      -3.30280000
H        0.34100000      -2.71150000      -0.89380000
H        4.56010000      -2.17270000      -2.24510000
H        2.45970000       0.84140000      -1.79650000
H        2.65750000       0.27150000      -0.14190000
