14
Properties=species:S:1:pos:R:3 gdb_35673=T pbc="F F F"
C        0.13750000      -1.22690000      -0.04930000
C        0.04820000      -0.03000000      -0.01040000
C       -0.09510000       1.42090000       0.03580000
C       -0.66360000       1.94950000       1.37530000
O        0.51430000       2.25870000       2.11520000
C        1.41660000       2.74930000       1.17010000
O        1.19760000       2.05880000      -0.04060000
C        1.22660000       4.21600000       0.95270000
N        1.08350000       5.35130000       0.79590000
H        0.22370000      -2.28520000      -0.08620000
H       -0.69590000       1.76630000      -0.81190000
H       -1.26900000       2.84990000       1.21080000
H       -1.23300000       1.20770000       1.93280000
H        2.43480000       2.56600000       1.52570000
