17
Properties=species:S:1:pos:R:3 gdb_33226=T pbc="F F F"
O       -0.04020000       1.44120000      -0.07310000
C       -0.01010000       0.02810000      -0.02670000
C       -1.40030000      -0.57380000       0.04870000
O       -2.06930000      -0.19060000      -1.16700000
C       -3.35050000      -0.57420000      -1.26040000
N       -4.04910000      -1.26400000      -0.39910000
C       -5.30040000      -1.38500000      -0.98510000
C       -5.33460000      -0.76330000      -2.19730000
N       -4.05960000      -0.23600000      -2.37030000
H       -0.62600000       1.67800000      -0.80030000
H        0.52220000      -0.39420000      -0.89400000
H        0.54630000      -0.25030000       0.87410000
H       -1.36910000      -1.66630000       0.12290000
H       -1.95880000      -0.18200000       0.90440000
H       -6.09630000      -1.91670000      -0.48730000
H       -6.10510000      -0.63950000      -2.93880000
H       -3.71310000       0.28450000      -3.15750000
