17
Properties=species:S:1:pos:R:3 gdb_44064=T pbc="F F F"
O        0.01130000      -0.00650000      -0.25200000
C        0.03160000       1.18780000      -0.13120000
C       -1.13730000       2.18480000      -0.08460000
C       -0.30320000       3.47330000       0.11850000
C        0.77500000       3.30690000      -1.00620000
C        1.22390000       2.11230000       0.01610000
C        0.75860000       3.16220000       1.11270000
C       -0.32060000       3.65900000       2.13260000
O       -0.93870000       4.43000000       1.02120000
H       -1.70740000       2.18800000      -1.01820000
H       -1.82630000       1.95920000       0.73210000
H        0.46450000       3.01140000      -2.01310000
H        1.53100000       4.09130000      -1.03890000
H        2.22150000       1.67820000      -0.01310000
H        1.50220000       3.96240000       1.08900000
H       -1.02210000       2.92420000       2.53560000
H        0.03870000       4.32130000       2.92240000
