17
Properties=species:S:1:pos:R:3 gdb_24084=T pbc="F F F"
C       -0.03210000      -1.22200000      -0.08640000
C       -0.03920000      -0.02230000      -0.00570000
C       -0.00980000       1.43110000       0.09180000
C        1.42100000       2.01280000      -0.02090000
C        1.42330000       3.50760000       0.03460000
C        2.03510000       4.33450000       0.94190000
N        1.72220000       5.61740000       0.54480000
C        0.94340000       5.51360000      -0.56750000
N        0.74290000       4.26120000      -0.90250000
H       -0.04200000      -2.28090000      -0.16020000
H       -0.62610000       1.87590000      -0.69750000
H       -0.45430000       1.74790000       1.04350000
H        2.04550000       1.60750000       0.78120000
H        1.85650000       1.67310000      -0.96730000
H        2.64900000       4.13820000       1.80530000
H        2.01860000       6.46810000       0.99220000
H        0.55780000       6.37980000      -1.08450000
