25
Properties=species:S:1:pos:R:3 gdb_92080=T pbc="F F F"
C       -0.30440000       1.61890000       0.03290000
C       -0.03140000       0.10500000      -0.00500000
C        0.56600000      -0.38720000      -1.34790000
C        2.08000000      -0.31240000      -1.47880000
C        2.87350000       0.95960000      -1.32410000
C        2.94580000      -0.10420000      -0.25200000
C        2.27490000       0.11350000       1.10380000
C        0.83030000      -0.41880000       1.16810000
C        0.20460000      -0.15580000       2.54210000
H        0.60770000       2.22100000       0.05580000
H       -0.87460000       1.92310000      -0.85100000
H       -0.89530000       1.89220000       0.91240000
H       -1.01310000      -0.38000000       0.08330000
H        0.28750000      -1.44330000      -1.45930000
H        0.08590000       0.13970000      -2.18310000
H        2.47510000      -1.00260000      -2.21980000
H        3.73540000       1.10000000      -1.96820000
H        2.34920000       1.87970000      -1.09180000
H        3.87030000      -0.67240000      -0.21680000
H        2.86320000      -0.38850000       1.88010000
H        2.28490000       1.17800000       1.37160000
H        0.88690000      -1.50960000       1.03470000
H        0.17690000       0.91400000       2.77560000
H       -0.82210000      -0.53500000       2.59290000
H        0.78070000      -0.64700000       3.33370000
