17
Properties=species:S:1:pos:R:3 gdb_67808=T pbc="F F F"
C       -0.08770000       1.47440000       0.03380000
C       -0.03160000      -0.02650000      -0.09440000
C        0.95870000      -0.73310000      -0.93990000
C        0.57730000      -2.00460000      -1.14470000
C       -0.64350000      -2.25390000      -0.31400000
O       -0.17390000      -2.22210000       1.10590000
C       -0.52750000      -0.86990000       1.18950000
C       -1.29730000      -0.83560000      -0.08320000
O       -2.51480000      -0.34850000      -0.48950000
H        0.85550000       1.87550000       0.41920000
H       -0.28700000       1.94660000      -0.93410000
H       -0.88770000       1.78270000       0.71400000
H        1.88970000      -0.28310000      -1.26520000
H        1.13160000      -2.77640000      -1.66160000
H       -1.25510000      -3.13730000      -0.49340000
H       -0.59890000      -0.40760000       2.16690000
H       -3.20640000      -0.77130000       0.03270000
