21
Properties=species:S:1:pos:R:3 gdb_93656=T pbc="F F F"
C        0.01820000       1.60420000       0.02730000
C        0.05210000       0.08130000      -0.06760000
C        0.84700000      -0.54230000      -1.23100000
C        1.14360000      -1.98120000      -0.75920000
C        1.46330000      -1.84070000       0.73200000
C        1.21050000      -3.06400000       1.60030000
O        2.83360000      -1.41770000       0.81650000
C        0.64570000      -0.59650000       1.16670000
O        0.58090000      -0.20350000       2.30620000
H        1.03320000       2.01480000       0.02450000
H       -0.52650000       2.04170000      -0.81450000
H       -0.46580000       1.91550000       0.95680000
H       -0.98240000      -0.29720000      -0.12060000
H        0.30480000      -0.51000000      -2.17920000
H        1.78770000       0.00230000      -1.36410000
H        0.25680000      -2.61280000      -0.88450000
H        1.97120000      -2.45010000      -1.29660000
H        1.89990000      -3.86830000       1.32780000
H        1.36110000      -2.80980000       2.65460000
H        0.18390000      -3.42800000       1.48800000
H        2.97700000      -1.11200000       1.72110000
