21
Properties=species:S:1:pos:R:3 gdb_86246=T pbc="F F F"
C       -0.47490000       1.42870000       0.01480000
C       -0.09380000      -0.05200000       0.02370000
C        0.75560000      -0.50800000      -1.18900000
C        1.68870000      -1.63640000      -0.69260000
O        3.02730000      -1.14940000      -0.80780000
C        1.27970000      -1.88140000       0.77670000
C        0.70010000      -0.53880000       1.27460000
C        1.78640000       0.43240000       1.69840000
O        1.76170000       1.05070000       2.73480000
H        0.41070000       2.07280000      -0.01190000
H       -1.08320000       1.66710000      -0.86370000
H       -1.05190000       1.69620000       0.90560000
H       -1.02120000      -0.63960000       0.02590000
H        0.12490000      -0.83060000      -2.02150000
H        1.38640000       0.30550000      -1.56010000
H        1.58080000      -2.55270000      -1.28850000
H        3.62260000      -1.83010000      -0.47670000
H        0.48830000      -2.63890000       0.81640000
H        2.11490000      -2.25720000       1.37790000
H        0.03900000      -0.65790000       2.13760000
H        2.63200000       0.53890000       0.98660000
