16
Properties=species:S:1:pos:R:3 gdb_55610=T pbc="F F F"
O        0.38730000       0.44300000      -1.05070000
C        0.80840000       0.70530000       0.00480000
O        1.26110000       0.95120000       1.04410000
C       -1.95160000       2.46560000       0.32580000
C       -2.76730000       1.39120000       0.32930000
N       -3.58960000       1.01410000       1.37130000
H       -4.36270000       0.41360000       1.09660000
H       -3.83320000       1.76610000       1.99640000
N       -2.75390000       0.50760000      -0.76950000
C       -3.66540000      -0.44700000      -1.12550000
N       -4.74300000      -0.70360000      -0.48470000
H       -1.91400000       3.13270000       1.17580000
H       -1.34580000       2.70430000      -0.53680000
H       -1.95750000       0.61060000      -1.37640000
H       -3.35240000      -0.96690000      -2.03810000
H       -5.25790000      -1.45380000      -0.93500000
