22
Properties=species:S:1:pos:R:3 gdb_60468=T pbc="F F F"
C       -0.06510000       0.36070000      -0.94300000
C       -0.00170000      -0.12170000       0.50270000
O        0.23250000       0.94120000       1.41980000
C       -1.26000000      -0.88630000       0.92250000
O       -1.40970000      -2.01680000       0.09280000
C       -2.52420000      -2.81850000       0.42570000
C       -2.54720000      -4.02170000      -0.47560000
C       -3.85050000      -4.61350000      -0.86730000
N       -3.02830000      -3.90310000      -1.85910000
H        0.85930000       0.87730000      -1.21460000
H       -0.21810000      -0.48270000      -1.62060000
H       -0.90260000       1.05800000      -1.08060000
H        0.85410000      -0.79570000       0.62220000
H       -0.41390000       1.63220000       1.23780000
H       -1.16680000      -1.17910000       1.98010000
H       -2.14210000      -0.22320000       0.84120000
H       -2.46490000      -3.13420000       1.48160000
H       -3.46140000      -2.24400000       0.31070000
H       -1.68430000      -4.67560000      -0.37140000
H       -3.93560000      -5.68490000      -1.02270000
H       -4.75680000      -4.13890000      -0.49810000
H       -3.39660000      -2.96710000      -2.01420000
