16
Properties=species:S:1:pos:R:3 gdb_131832=T pbc="F F F"
O       -0.07280000       1.35270000       0.10480000
C        0.03330000      -0.05850000       0.06830000
C       -1.39870000      -0.59240000       0.01250000
N       -1.43780000      -2.03960000      -0.01370000
N       -1.57800000      -2.72790000      -1.13540000
C       -1.48690000      -4.00390000      -0.75370000
C       -1.27970000      -4.02130000       0.63450000
O       -1.13920000      -5.10080000       1.42460000
N       -1.24530000      -2.77420000       1.09200000
H        0.81320000       1.72310000       0.14410000
H        0.58440000      -0.40980000      -0.81690000
H        0.53320000      -0.45970000       0.96190000
H       -1.95540000      -0.24440000       0.88560000
H       -1.89580000      -0.24120000      -0.89240000
H       -1.57810000      -4.81770000      -1.45290000
H       -1.02590000      -4.78630000       2.33000000
