16
Properties=species:S:1:pos:R:3 gdb_53367=T pbc="F F F"
C       -0.14970000       1.44500000       0.05660000
C       -0.05580000      -0.00630000       0.00400000
C        0.02170000      -1.20750000      -0.03470000
C        0.09560000      -2.66770000      -0.08930000
C        0.73500000      -3.31850000       1.17000000
O       -0.36710000      -3.67750000       2.00260000
C       -1.51710000      -3.70400000       1.26280000
O       -2.58310000      -4.02780000       1.70090000
N       -1.20810000      -3.32490000      -0.03390000
H        0.48910000       1.85340000       0.84700000
H        0.15950000       1.89830000      -0.89130000
H       -1.17690000       1.76500000       0.26150000
H        0.64340000      -2.97570000      -0.98630000
H        1.29040000      -4.22210000       0.89640000
H        1.38470000      -2.63350000       1.71460000
H       -1.97350000      -2.96810000      -0.58500000
