25
Properties=species:S:1:pos:R:3 gdb_60486=T pbc="F F F"
C        0.16210000       1.55440000       0.14740000
C        0.06510000       0.02740000       0.01730000
C        0.83550000      -0.65890000       1.15360000
C       -1.39140000      -0.47110000      -0.02080000
C       -2.20930000      -0.00740000      -1.23190000
C       -3.61590000      -0.61640000      -1.26720000
C       -4.43760000      -0.16030000      -2.48600000
C       -5.84860000      -0.69820000      -2.44740000
O       -6.36350000      -1.36210000      -3.30980000
H        1.20770000       1.87750000       0.18640000
H       -0.30970000       2.07240000      -0.69260000
H       -0.32430000       1.89850000       1.06860000
H        0.53980000      -0.26140000      -0.93220000
H        0.40160000      -0.40690000       2.12880000
H        0.81120000      -1.74910000       1.05150000
H        1.88480000      -0.34620000       1.16820000
H       -1.38360000      -1.56950000      -0.00420000
H       -1.89990000      -0.15960000       0.90350000
H       -2.29620000       1.08630000      -1.23510000
H       -1.67720000      -0.27430000      -2.15530000
H       -3.54190000      -1.71150000      -1.27230000
H       -4.15230000      -0.35030000      -0.34620000
H       -4.50240000       0.93800000      -2.48310000
H       -3.97070000      -0.46960000      -3.42590000
H       -6.40990000      -0.43570000      -1.51840000
