21
Properties=species:S:1:pos:R:3 gdb_53698=T pbc="F F F"
C       -0.07020000       1.39990000      -0.23950000
C       -0.06660000      -0.04740000      -0.08720000
C       -0.06910000      -1.24410000       0.03710000
C       -0.04320000      -2.69200000       0.19190000
O       -1.35130000      -3.22140000       0.08530000
C       -1.37530000      -4.62770000       0.24310000
C       -2.79940000      -5.10350000       0.18370000
C       -3.45590000      -5.34740000      -1.14960000
C       -3.09300000      -6.51340000      -0.26510000
H        0.94970000       1.78850000      -0.33550000
H       -0.62490000       1.70380000      -1.13400000
H       -0.53260000       1.89230000       0.62290000
H        0.61400000      -3.13910000      -0.57530000
H        0.39800000      -2.95690000       1.16940000
H       -0.78070000      -5.11450000      -0.55070000
H       -0.91310000      -4.90730000       1.20640000
H       -3.43130000      -4.69960000       0.96910000
H       -4.50270000      -5.08880000      -1.26020000
H       -2.86070000      -5.18030000      -2.04120000
H       -2.25670000      -7.13740000      -0.56410000
H       -3.88880000      -7.05340000       0.23540000
