21
Properties=species:S:1:pos:R:3 gdb_120518=T pbc="F F F"
C        0.00400000       1.57250000      -0.04200000
C        0.00320000       0.04360000       0.03230000
C        0.65790000      -0.48270000       1.31060000
N        0.67390000      -1.93290000       1.35650000
C       -0.59520000      -2.65220000       1.57500000
C        0.19270000      -3.69220000       2.42470000
C        1.28320000      -2.58560000       2.52780000
C       -0.41020000      -4.18700000       3.64680000
N       -0.89280000      -4.57340000       4.62400000
H        1.02490000       1.96980000      -0.02280000
H       -0.47170000       1.92360000      -0.96230000
H       -0.53830000       2.01310000       0.80170000
H       -1.02930000      -0.32500000      -0.02320000
H        0.53000000      -0.38110000      -0.82980000
H        1.69900000      -0.13790000       1.35890000
H        0.14170000      -0.05690000       2.19520000
H       -1.31780000      -2.09480000       2.19240000
H       -1.09480000      -3.02030000       0.67500000
H        0.53260000      -4.52970000       1.81250000
H        2.32550000      -2.89430000       2.40610000
H        1.17910000      -2.00820000       3.45990000
