15
Properties=species:S:1:pos:R:3 gdb_33812=T pbc="F F F"
C        0.00960000      -1.22450000      -0.06040000
C        0.00270000      -0.02130000      -0.03540000
C       -0.01240000       1.39520000       0.01800000
C        0.26930000       2.28040000      -1.17820000
C        1.15590000       2.43870000       0.01870000
N        0.45690000       3.28520000       1.00520000
C       -0.61020000       2.23900000       1.15740000
C        2.56470000       2.23920000       0.02520000
N        3.71130000       2.08110000       0.05820000
H        0.02050000      -2.28620000      -0.08680000
H        0.70300000       1.75660000      -2.02200000
H       -0.39900000       3.10290000      -1.41680000
H        0.99940000       3.37120000       1.85840000
H       -1.62490000       2.61760000       1.00230000
H       -0.55520000       1.71070000       2.11210000
