19
Properties=species:S:1:pos:R:3 gdb_39871=T pbc="F F F"
C       -0.03430000       1.52750000      -0.00800000
N        1.21430000       0.73640000       0.05200000
C       -0.07300000       0.05040000       0.00870000
C       -0.47800000      -0.96190000       1.07120000
C       -1.99760000      -1.02940000       1.32550000
C       -2.11080000      -1.83120000       0.01330000
C       -2.03530000      -0.99720000      -1.28190000
C       -0.50870000      -0.93730000      -1.06650000
N       -0.58920000      -2.05340000      -0.01160000
H       -0.25690000       2.09480000       0.89220000
H       -0.29140000       2.03450000      -0.93560000
H        1.65710000       0.71140000      -0.86450000
H        0.21240000      -1.10800000       1.90370000
H       -2.22870000      -1.65310000       2.19270000
H       -2.54810000      -0.08770000       1.40970000
H       -2.76160000      -2.70760000       0.01060000
H       -2.29050000      -1.60040000      -2.15710000
H       -2.58670000      -0.05360000      -1.32850000
H        0.14870000      -1.07200000      -1.93070000
