22
Properties=species:S:1:pos:R:3 gdb_11619=T pbc="F F F"
C        0.34430000       1.37520000       0.33710000
C        0.00790000      -0.06580000      -0.06550000
C       -1.49600000      -0.25230000      -0.30050000
C        0.79210000      -0.49160000      -1.30580000
O        2.18010000      -0.43900000      -1.01640000
C        2.98510000      -0.77760000      -2.09920000
C        3.33920000       0.27930000      -3.11580000
C        4.36430000      -0.20610000      -2.10780000
H        1.42010000       1.49620000       0.48280000
H        0.02590000       2.08060000      -0.44070000
H       -0.16480000       1.65320000       1.26570000
H        0.31900000      -0.73260000       0.74980000
H       -1.84840000       0.38010000      -1.12420000
H       -1.74080000      -1.29080000      -0.54830000
H       -2.06680000       0.02210000       0.59210000
H        0.50930000      -1.51540000      -1.60260000
H        0.55570000       0.17130000      -2.15490000
H        2.84650000      -1.79880000      -2.45870000
H        3.44840000      -0.00780000      -4.15590000
H        2.92590000       1.26880000      -2.95550000
H        4.61060000       0.46540000      -1.29330000
H        5.18290000      -0.83000000      -2.44810000
