17
Properties=species:S:1:pos:R:3 gdb_35219=T pbc="F F F"
C        0.19910000      -1.16640000      -0.10630000
C        0.12370000       0.03320000      -0.05410000
C        0.02730000       1.45820000      -0.01200000
C        0.29140000       2.21920000       1.28890000
C        1.29270000       2.31890000       0.18550000
O        2.52570000       1.67250000       0.36150000
C        3.51530000       2.31450000      -0.44590000
C        2.82470000       3.52150000      -1.01950000
C        1.54810000       3.51470000      -0.64700000
H        0.27210000      -2.22440000      -0.14790000
H       -0.72300000       1.89040000      -0.66880000
H       -0.33800000       3.07330000       1.51520000
H        0.58560000       1.61850000       2.14160000
H        4.37870000       2.57000000       0.18510000
H        3.87230000       1.62650000      -1.22860000
H        3.32010000       4.25020000      -1.64730000
H        0.78060000       4.23260000      -0.90360000
