17
Properties=species:S:1:pos:R:3 gdb_81816=T pbc="F F F"
C       -0.14810000       1.48330000       0.06800000
C        0.14760000       0.02200000       0.00870000
O       -0.67610000      -0.88580000       0.74800000
C        0.74490000      -0.93620000       0.95410000
C        1.30460000      -1.82740000      -0.17830000
N        0.86460000      -3.18920000      -0.32250000
C        0.68380000      -0.77960000      -1.20540000
C       -0.30730000      -1.25570000      -2.15460000
N       -1.10880000      -1.62200000      -2.90260000
H        0.70430000       2.06770000      -0.29230000
H       -1.01420000       1.72560000      -0.55710000
H       -0.37230000       1.78160000       1.09510000
H        1.10250000      -0.79800000       1.96900000
H        2.39600000      -1.78820000      -0.22830000
H        1.33840000      -3.79520000       0.33900000
H       -0.13340000      -3.24900000      -0.14000000
H        1.47470000      -0.24410000      -1.73700000
