22
Properties=species:S:1:pos:R:3 gdb_110020=T pbc="F F F"
C       -0.18840000       1.64910000       0.12920000
C       -0.04960000       0.13100000      -0.03180000
C        0.80040000      -0.51540000       1.06850000
C        0.75900000      -2.06140000       1.19610000
C        0.70970000      -2.79450000      -0.15040000
C        2.08190000      -2.36370000       1.94490000
N        2.95650000      -1.30700000       1.46830000
C        2.30580000      -0.20960000       0.97520000
O        2.83830000       0.80080000       0.56280000
H        0.79410000       2.12410000       0.11590000
H       -0.79520000       2.07200000      -0.67760000
H       -0.67700000       1.89920000       1.07830000
H       -1.04510000      -0.33130000      -0.02170000
H        0.38680000      -0.09390000      -1.01140000
H        0.48280000      -0.09510000       2.03560000
H       -0.09640000      -2.37540000       1.80180000
H        1.57270000      -2.53940000      -0.77470000
H        0.71720000      -3.87830000       0.00510000
H       -0.19490000      -2.54620000      -0.71130000
H        1.94560000      -2.31970000       3.03560000
H        2.48080000      -3.35270000       1.69630000
H        3.95110000      -1.28350000       1.62630000
