19
Properties=species:S:1:pos:R:3 gdb_34305=T pbc="F F F"
N        0.04540000      -1.10050000      -0.03360000
C        0.00240000       0.05410000      -0.01560000
C       -0.01560000       1.51020000       0.02200000
C       -0.81730000       2.11630000       1.20680000
C       -1.12950000       3.54640000       0.67060000
C       -0.45860000       3.52480000      -0.71800000
C        1.08130000       3.58760000      -0.53880000
C        1.40490000       2.16270000      -0.00150000
N       -0.73360000       2.12580000      -1.12200000
H       -1.72940000       1.54260000       1.37580000
H       -0.23240000       2.11020000       2.12860000
H       -2.20620000       3.69840000       0.57560000
H       -0.72810000       4.33700000       1.30890000
H       -0.86320000       4.24780000      -1.42710000
H        1.57520000       3.76840000      -1.49780000
H        1.39320000       4.38100000       0.14570000
H        1.87090000       2.16300000       0.98660000
H        2.06350000       1.61100000      -0.67680000
H       -0.25720000       1.90020000      -1.99400000
