19
Properties=species:S:1:pos:R:3 gdb_62070=T pbc="F F F"
C       -0.01240000       1.07150000       1.19360000
C        0.25720000      -0.13590000       0.29840000
O        0.51500000      -1.33200000       1.02560000
C        1.86910000      -1.71510000       1.15560000
C        2.64220000      -0.88070000       2.14730000
C        4.09090000      -0.68550000       2.01460000
O        3.17950000       0.35510000       1.66020000
C       -0.92600000      -0.44270000      -0.61990000
O       -1.63640000       0.39120000      -1.11550000
H        0.90030000       1.39610000       1.69580000
H       -0.39740000       1.89080000       0.58120000
H       -0.76680000       0.81730000       1.94370000
H        1.10780000       0.08530000      -0.36770000
H        1.84980000      -2.75660000       1.49740000
H        2.38450000      -1.68190000       0.18310000
H        2.19630000      -0.81150000       3.14000000
H        4.69210000      -0.50170000       2.90320000
H        4.62290000      -1.14250000       1.18100000
H       -1.06510000      -1.53160000      -0.80330000
