13
Properties=species:S:1:pos:R:3 gdb_42285=T pbc="F F F"
O        0.17050000      -0.10020000       0.19860000
C        0.02480000       1.08650000       0.09320000
C        1.18440000       1.99810000      -0.03310000
N        2.07020000       2.73490000      -0.13120000
C       -1.31380000       1.80740000       0.02670000
C       -1.69130000       2.20710000      -1.44510000
N       -2.82290000       1.33090000      -1.76680000
C       -3.09350000       0.69480000      -0.70900000
O       -2.35530000       0.91100000       0.41580000
H       -1.29740000       2.66450000       0.70630000
H       -1.99210000       3.25630000      -1.51610000
H       -0.87030000       2.05050000      -2.15120000
H       -3.88890000      -0.02990000      -0.58550000
