18
Properties=species:S:1:pos:R:3 gdb_93573=T pbc="F F F"
N       -0.03820000       1.32930000       0.10240000
C        0.04600000      -0.03840000       0.07350000
O        1.11590000      -0.62120000       0.07780000
C       -1.26380000      -0.75340000       0.06680000
C       -1.35870000      -2.08120000      -0.04750000
C       -2.78890000      -2.56110000      -0.05280000
O       -3.02760000      -3.71350000       0.74040000
C       -3.58000000      -1.30060000       0.39220000
C       -2.63350000      -0.10150000       0.14230000
H        0.82200000       1.84390000       0.00450000
H       -0.90190000       1.81240000      -0.07220000
H       -0.51040000      -2.74720000      -0.14940000
H       -3.07920000      -2.87190000      -1.06540000
H       -2.68300000      -3.53460000       1.62280000
H       -4.54380000      -1.20440000      -0.11220000
H       -3.78410000      -1.39670000       1.46450000
H       -2.70200000       0.65920000       0.92870000
H       -2.87690000       0.40250000      -0.80380000
