19
Properties=species:S:1:pos:R:3 gdb_83781=T pbc="F F F"
O        0.02960000       1.46190000      -0.05120000
C       -0.01710000       0.06150000       0.00280000
C        0.22160000      -0.69070000       1.35750000
C       -0.41970000       0.13870000       2.46470000
O       -1.70600000       0.59790000       2.01420000
C       -2.30600000      -0.35460000       1.13470000
C       -2.11540000      -1.80510000       1.65090000
C       -0.78770000      -1.80270000       0.86880000
C       -1.35200000      -0.68970000      -0.08010000
H       -0.66340000       1.77870000       0.54240000
H        0.67010000      -0.30470000      -0.76620000
H        1.23770000      -0.99600000       1.61500000
H       -0.52350000      -0.43650000       3.39450000
H        0.17020000       1.03390000       2.68290000
H       -3.31090000       0.01150000       0.92240000
H       -2.12490000      -1.96710000       2.73250000
H       -2.83550000      -2.48330000       1.18360000
H       -0.33910000      -2.73050000       0.51430000
H       -1.84640000      -0.88470000      -1.03300000
