18
Properties=species:S:1:pos:R:3 gdb_20204=T pbc="F F F"
C       -0.02530000       1.54650000      -0.02430000
C        1.46560000       1.97100000       0.03190000
C        2.14340000       0.83650000       0.84790000
C        1.69600000       0.94760000       2.29880000
C        0.66560000       0.13760000       2.55210000
C        0.33470000      -0.69850000       1.36070000
C        0.01220000       0.01720000       0.03660000
C        1.41610000      -0.43360000       0.34010000
H       -0.58300000       1.97350000       0.81530000
H       -0.51200000       1.88950000      -0.94160000
H        1.88890000       1.99030000      -0.97940000
H        1.61120000       2.96340000       0.47180000
H        3.22940000       0.82130000       0.72060000
H        2.09060000       1.70030000       2.97270000
H        0.10750000       0.09280000       3.48040000
H       -0.08480000      -1.69050000       1.49150000
H       -0.59710000      -0.54400000      -0.66380000
H        1.93250000      -1.21580000      -0.20250000
