18
Properties=species:S:1:pos:R:3 gdb_16442=T pbc="F F F"
C       -0.00440000       1.54840000       0.02240000
C        0.03460000       0.04700000       0.01520000
C       -0.87780000      -0.82240000       0.82670000
C        0.60850000      -0.96060000       1.03580000
C        1.29450000      -1.76110000      -0.09350000
C        0.49090000      -2.85290000      -0.82960000
O       -0.13260000      -1.86230000      -1.69170000
C        0.67150000      -0.80020000      -1.11830000
H        0.96110000       1.98000000      -0.26650000
H       -0.75990000       1.92860000      -0.67630000
H       -0.25410000       1.93060000       1.01770000
H       -1.39450000      -0.30680000       1.63080000
H       -1.46540000      -1.59900000       0.34890000
H        1.05850000      -0.76450000       2.00230000
H        2.37110000      -1.88840000       0.00630000
H        1.10660000      -3.54810000      -1.41370000
H       -0.24330000      -3.42180000      -0.24740000
H        1.23930000      -0.24480000      -1.87010000
