16
Properties=species:S:1:pos:R:3 gdb_15572=T pbc="F F F"
C        0.14020000       1.57750000      -0.16230000
C       -0.03090000       0.07650000       0.05420000
O        0.47930000      -0.64970000      -1.07820000
C        1.43480000      -1.61790000      -0.67260000
C        1.57130000      -1.44370000       0.80770000
C        0.73750000      -0.48760000       1.22890000
C        0.56230000      -0.07440000       2.62280000
O       -0.21840000       0.77530000       2.99250000
H        1.20010000       1.83550000      -0.24960000
H       -0.36680000       1.87850000      -1.08300000
H       -0.29190000       2.12430000       0.67930000
H       -1.10380000      -0.14620000       0.16200000
H        1.09330000      -2.63470000      -0.92990000
H        2.38780000      -1.45990000      -1.20210000
H        2.24410000      -2.02790000       1.42490000
H        1.21030000      -0.61460000       3.34780000
