18
Properties=species:S:1:pos:R:3 gdb_125898=T pbc="F F F"
C       -0.29310000       1.66400000      -0.22180000
C        0.09700000       0.21530000       0.00260000
C        0.81350000      -0.56490000      -1.18250000
C        1.98500000      -0.70930000      -0.22040000
C        3.16990000      -1.16340000       0.33700000
N        4.23600000      -1.87600000      -0.24450000
C        3.10240000      -0.63620000       1.66090000
N        1.97560000       0.06010000       1.91660000
N        1.35720000      -0.00480000       0.74110000
H        0.53150000       2.22450000      -0.67190000
H       -1.16120000       1.72240000      -0.88640000
H       -0.55740000       2.14280000       0.72580000
H       -0.73140000      -0.35370000       0.43810000
H        0.31280000      -1.49130000      -1.47670000
H        0.99090000       0.04530000      -2.07260000
H        3.91960000      -2.56150000      -0.91910000
H        4.79370000      -2.35120000       0.45430000
H        3.85180000      -0.73610000       2.43420000
