19
Properties=species:S:1:pos:R:3 gdb_77506=T pbc="F F F"
C       -0.13590000       1.59290000       0.00970000
C        0.02460000       0.08220000       0.03330000
C        1.16710000      -0.63590000      -0.73790000
O        1.28530000      -0.59980000      -2.11550000
C        2.18100000      -0.15840000       0.34950000
C        0.92350000      -0.64540000       1.10590000
O        0.80700000      -0.62170000       2.47950000
C        0.93450000      -1.88850000       0.17150000
O       -0.26550000      -2.61600000       0.09040000
H        0.79790000       2.14070000       0.15710000
H       -0.55860000       1.91360000      -0.94840000
H       -0.82880000       1.90960000       0.79680000
H       -0.94200000      -0.40730000      -0.10310000
H        2.13820000      -0.97460000      -2.36050000
H        3.08430000      -0.76230000       0.48050000
H        2.40560000       0.90540000       0.38940000
H       -0.00810000      -1.07950000       2.71450000
H        1.80240000      -2.55290000       0.28910000
H       -0.34250000      -2.97120000      -0.80120000
