16
Properties=species:S:1:pos:R:3 gdb_49259=T pbc="F F F"
O        0.03750000      -0.03320000      -0.05460000
C        0.01670000       1.17690000      -0.01170000
C        1.23480000       2.00000000       0.04920000
C        1.19180000       3.34270000       0.04220000
C        2.47060000       4.12730000       0.02510000
C        3.60700000       3.34180000       0.70440000
C        3.66560000       1.86080000       0.33420000
O        4.68760000       1.21100000       0.32700000
N        2.43480000       1.29520000       0.07140000
H       -0.93000000       1.75340000      -0.02640000
H        0.23110000       3.84400000       0.00990000
H        2.73790000       4.34590000      -1.02050000
H        2.34340000       5.10050000       0.50940000
H        4.58650000       3.77360000       0.49320000
H        3.47140000       3.37340000       1.79380000
H        2.38100000       0.29040000      -0.03650000
