19
Properties=species:S:1:pos:R:3 gdb_54658=T pbc="F F F"
C       -0.02710000       1.50570000       0.00040000
C        0.02690000      -0.01150000       0.01470000
O        1.08550000      -0.60850000       0.03290000
C       -1.27390000      -0.73500000       0.00350000
C       -1.37160000      -2.07430000       0.04980000
C       -2.80100000      -2.55200000       0.00520000
C       -3.61570000      -1.25820000       0.03700000
C       -3.46790000      -0.35260000       1.23080000
C       -2.63120000      -0.09890000      -0.00900000
H        0.98440000       1.90760000       0.06550000
H       -0.50170000       1.86120000      -0.92190000
H       -0.63440000       1.87900000       0.83240000
H       -0.51630000      -2.73470000       0.12850000
H       -2.98960000      -3.12980000      -0.91030000
H       -3.03610000      -3.22470000       0.84050000
H       -4.54560000      -1.21460000      -0.51700000
H       -4.28740000       0.32930000       1.43260000
H       -2.95870000      -0.72370000       2.11500000
H       -2.81680000       0.79370000      -0.59540000
