23
Properties=species:S:1:pos:R:3 gdb_103434=T pbc="F F F"
C        0.03740000       1.33370000       0.23110000
O        0.07720000      -0.06740000       0.05900000
C        0.65020000      -0.55550000      -1.14390000
C        2.00710000       0.07130000      -1.45560000
C        0.71180000      -2.08300000      -1.12910000
C       -0.65990000      -2.67910000      -1.01480000
C       -0.20740000      -2.15630000      -2.34970000
C       -0.31240000      -0.62650000      -2.41360000
C       -1.70100000       0.00110000      -2.36160000
H        1.03370000       1.76290000       0.40630000
H       -0.41650000       1.85240000      -0.62410000
H       -0.57790000       1.52200000       1.11490000
H        2.67770000      -0.02330000      -0.59440000
H        2.46790000      -0.44380000      -2.30300000
H        1.92460000       1.13090000      -1.71630000
H        1.61010000      -2.64940000      -0.91220000
H       -0.67980000      -3.76100000      -0.92840000
H       -1.42590000      -2.17240000      -0.43770000
H       -0.11780000      -2.80520000      -3.21290000
H        0.22670000      -0.24570000      -3.28740000
H       -2.21340000      -0.22610000      -1.42340000
H       -1.65630000       1.09080000      -2.46120000
H       -2.31870000      -0.37780000      -3.18370000
