20
Properties=species:S:1:pos:R:3 gdb_36039=T pbc="F F F"
N       -0.07430000      -1.23010000      -0.00510000
C       -0.04230000      -0.07490000       0.00180000
C        0.00200000       1.38500000       0.01010000
C        1.41580000       1.97150000      -0.00090000
C        2.51250000       1.23850000       0.73750000
C        2.49630000       1.24870000      -0.77250000
C        1.48900000       3.47740000       0.00850000
C        0.52590000       4.37600000      -0.72890000
C        0.54430000       4.36540000       0.78180000
H       -0.56220000       1.73680000      -0.86200000
H       -0.54420000       1.72610000       0.89780000
H        3.25490000       1.83830000       1.25250000
H        2.26860000       0.30560000       1.23360000
H        2.24150000       0.32240000      -1.27570000
H        3.22750000       1.85530000      -1.29540000
H        2.51980000       3.82230000      -0.00160000
H        0.93030000       5.23760000      -1.24830000
H       -0.33190000       3.93450000      -1.22420000
H       -0.30120000       3.91680000       1.29170000
H        0.96140000       5.21980000       1.30320000
