15
Properties=species:S:1:pos:R:3 gdb_18567=T pbc="F F F"
O       -0.21040000       0.25930000       0.60900000
C       -0.04550000       1.34230000       0.15300000
O       -0.99030000       2.16970000      -0.40860000
C       -0.00680000       3.22520000      -0.68620000
C       -0.12390000       4.41420000       0.25620000
C        0.55650000       3.91030000       1.55650000
N        1.61300000       2.96920000       1.14020000
C        1.11860000       2.33890000      -0.06860000
H        0.00260000       3.45540000      -1.75120000
H        0.43570000       5.25590000      -0.16860000
H       -1.15950000       4.73130000       0.40050000
H        0.97620000       4.71190000       2.16700000
H       -0.17020000       3.37230000       2.17590000
H        2.46890000       3.47180000       0.93160000
H        1.91680000       1.95770000      -0.70530000
