15
Properties=species:S:1:pos:R:3 gdb_132515=T pbc="F F F"
C       -0.02540000       1.49840000       0.05960000
C        0.01030000      -0.00350000      -0.02520000
C       -0.12150000      -0.69060000      -1.22890000
C       -0.08040000      -2.08540000      -1.24530000
C        0.09280000      -2.76320000      -0.04930000
O        0.14140000      -4.11770000       0.00320000
C        0.21390000      -1.96800000       1.09660000
F        0.38220000      -2.62740000       2.25870000
N        0.17860000      -0.66950000       1.13500000
H        0.90490000       1.88260000       0.49060000
H       -0.16470000       1.95090000      -0.92500000
H       -0.84000000       1.82860000       0.71260000
H       -0.25630000      -0.14220000      -2.15420000
H       -0.18020000      -2.64830000      -2.16640000
H        0.26670000      -4.37170000       0.92580000
