14
Properties=species:S:1:pos:R:3 gdb_25685=T pbc="F F F"
C       -0.07030000       1.47560000       0.02370000
C       -0.00020000       0.02430000      -0.00420000
C        0.06840000      -1.18040000      -0.02930000
C        0.11610000      -2.58450000      -0.05230000
C        1.13820000      -3.43900000      -0.26360000
O        0.70210000      -4.73490000      -0.18940000
C       -0.66290000      -4.73150000       0.08190000
O       -1.33140000      -5.71820000       0.20520000
N       -1.00620000      -3.40400000       0.16280000
H        0.58740000       1.89080000       0.79540000
H        0.22720000       1.90690000      -0.93850000
H       -1.09000000       1.81250000       0.23870000
H        2.18090000      -3.27570000      -0.46930000
H       -1.94210000      -3.09140000       0.35180000
