21
Properties=species:S:1:pos:R:3 gdb_108312=T pbc="F F F"
C       -0.11330000       1.49980000       0.10110000
C       -0.15240000      -0.02690000      -0.04020000
C        0.68850000      -0.51550000      -1.19450000
C        0.26780000      -0.24090000      -2.65830000
C        0.63950000      -1.71340000      -3.02810000
O        1.59990000      -1.93020000      -4.03170000
C        1.02610000      -2.00210000      -1.53980000
C        2.45980000      -1.62200000      -1.17350000
O        2.10850000      -0.22630000      -1.01990000
H        0.91700000       1.84280000       0.23000000
H       -0.52420000       1.99260000      -0.78650000
H       -0.69590000       1.82920000       0.96620000
H        0.21090000      -0.49470000       0.88290000
H       -1.18460000      -0.37000000      -0.18630000
H       -0.79150000      -0.00700000      -2.79840000
H        0.86920000       0.52850000      -3.15030000
H       -0.23270000      -2.29910000      -3.32900000
H        2.30820000      -1.28850000      -3.91460000
H        0.57930000      -2.87350000      -1.06210000
H        2.81450000      -2.05240000      -0.22840000
H        3.22860000      -1.78380000      -1.93980000
