18
Properties=species:S:1:pos:R:3 gdb_48039=T pbc="F F F"
O       -0.04550000      -0.07940000      -0.22090000
C        0.03010000       1.08640000       0.09420000
C        1.22590000       1.88240000       0.00920000
C        2.21540000       2.57340000      -0.05190000
C        3.40040000       3.41160000      -0.12200000
C        3.12540000       4.88320000       0.23660000
N        4.36630000       5.63990000       0.17460000
C        4.68770000       6.25280000      -1.11320000
C        4.23300000       7.08530000       0.03390000
H       -0.85180000       1.63600000       0.48330000
H        4.17080000       3.01950000       0.55310000
H        3.82560000       3.35390000      -1.13240000
H        2.34640000       5.28550000      -0.43490000
H        2.73560000       4.94120000       1.25850000
H        5.73460000       6.23060000      -1.40020000
H        3.98510000       6.11460000      -1.93410000
H        3.22860000       7.50180000      -0.02330000
H        4.94190000       7.68140000       0.60090000
