16
Properties=species:S:1:pos:R:3 gdb_4769=T pbc="F F F"
C       -0.17830000       1.47690000       0.00390000
C       -0.03390000      -0.01320000      -0.00060000
C        0.27310000      -0.80890000      -1.05880000
O        0.31220000      -2.12220000      -0.68980000
C        0.03260000      -2.16630000       0.64170000
C        0.01420000      -3.51320000       1.29200000
O       -0.78880000      -3.52590000       2.45840000
C       -0.19070000      -0.91080000       1.11420000
H        0.52870000       1.94650000       0.69720000
H        0.00300000       1.89490000      -0.99020000
H       -1.18360000       1.78220000       0.31580000
H        0.47990000      -0.60810000      -2.09740000
H       -0.30370000      -4.26370000       0.55110000
H        1.01800000      -3.80460000       1.62530000
H       -1.66390000      -3.21190000       2.20580000
H       -0.42530000      -0.65100000       2.13490000
