22
Properties=species:S:1:pos:R:3 gdb_88873=T pbc="F F F"
C        0.76330000       1.31480000      -0.49510000
N       -0.02850000       0.19400000       0.00210000
C        0.67800000      -1.02050000       0.40200000
C        0.02070000      -0.15350000       1.42010000
C        0.82240000       0.59750000       2.46440000
C        0.75950000      -0.05330000       3.86360000
C        2.11120000       0.34040000       4.50950000
C        2.88390000       1.01100000       3.34840000
O        2.21220000       0.63270000       2.15500000
H        1.73730000       1.43250000      -0.00350000
H        0.92350000       1.17370000      -1.56890000
H        0.19120000       2.23990000      -0.36410000
H        0.22350000      -1.95920000       0.09460000
H        1.76510000      -1.00440000       0.39250000
H       -0.95010000      -0.45810000       1.81180000
H        0.44610000       1.63480000       2.53300000
H       -0.10510000       0.28990000       4.43680000
H        0.68040000      -1.13900000       3.75650000
H        1.98550000       1.02780000       5.34960000
H        2.63950000      -0.53940000       4.88360000
H        2.87410000       2.10680000       3.45850000
H        3.92380000       0.68630000       3.26140000
