19
Properties=species:S:1:pos:R:3 gdb_82062=T pbc="F F F"
O        0.44100000       1.34570000       0.17190000
C        0.19600000      -0.03150000       0.10950000
C        0.19050000      -0.79390000       1.44400000
O       -0.88140000      -0.20720000       2.20500000
C       -1.20240000      -1.22000000       1.23400000
C       -1.29080000      -0.51420000      -0.12030000
C       -2.45650000       0.45630000      -0.41370000
C       -3.04060000      -0.58570000      -1.40870000
C       -1.68420000      -1.34480000      -1.37010000
H       -0.06430000       1.66950000       0.92910000
H        0.87720000      -0.45500000      -0.63430000
H        1.00270000      -1.24350000       2.00410000
H       -1.72420000      -2.10000000       1.59360000
H       -3.07620000       0.75200000       0.43640000
H       -2.09230000       1.36030000      -0.91120000
H       -3.85390000      -1.16930000      -0.96930000
H       -3.37160000      -0.21470000      -2.38110000
H       -1.04680000      -1.11100000      -2.22820000
H       -1.71910000      -2.43210000      -1.25470000
