17
Properties=species:S:1:pos:R:3 gdb_106487=T pbc="F F F"
O        0.06830000       1.39500000      -0.04870000
C        0.07260000      -0.01830000      -0.02280000
C       -1.33230000      -0.57760000      -0.04960000
C       -2.32460000      -0.52440000      -1.27190000
C       -3.08830000      -1.52200000      -0.37570000
C       -1.72370000      -2.09690000       0.05930000
O       -3.45470000      -0.68630000       0.77550000
C       -2.28290000      -0.02850000       1.00940000
O       -2.11330000       0.79700000       1.86330000
H       -0.40660000       1.67870000       0.74430000
H        0.63210000      -0.35150000      -0.90330000
H        0.59610000      -0.41040000       0.86470000
H       -2.81340000       0.42350000      -1.50290000
H       -1.89920000      -0.97920000      -2.16850000
H       -3.95100000      -2.11020000      -0.67640000
H       -1.24470000      -2.70670000      -0.70930000
H       -1.66980000      -2.58010000       1.03730000
