15
Properties=species:S:1:pos:R:3 gdb_28837=T pbc="F F F"
N        0.09500000       1.33940000      -0.22900000
C        0.00810000      -0.04450000      -0.05050000
C       -1.17870000      -0.70990000      -0.18890000
N       -1.49560000      -1.97180000       0.24190000
C       -0.67230000      -2.94550000       0.35540000
C        0.75540000      -2.92260000      -0.06730000
N        1.20190000      -3.85650000      -0.80910000
N        1.53830000      -1.91200000       0.49320000
C        1.20450000      -0.67260000       0.49010000
H        0.96170000       1.66130000      -0.63740000
H       -0.70300000       1.75400000      -0.69030000
H       -2.03750000      -0.14490000      -0.54970000
H       -1.04240000      -3.88660000       0.76170000
H        2.20010000      -3.70990000      -0.98520000
H        1.91550000       0.01840000       0.95140000
