22
Properties=species:S:1:pos:R:3 gdb_6557=T pbc="F F F"
C        0.02300000       1.52680000      -0.10390000
C        0.03410000      -0.00810000       0.02110000
C        0.65230000      -0.41320000       1.37250000
C       -1.41320000      -0.53030000      -0.04090000
C        0.81890000      -0.64650000      -1.15480000
C        2.27230000      -0.25530000      -1.27710000
C        2.95040000      -0.18830000      -2.57830000
O        2.56500000       1.00470000      -1.89560000
H        1.03170000       1.94510000      -0.05860000
H       -0.41920000       1.84150000      -1.05510000
H       -0.56750000       1.97190000       0.70460000
H        0.05130000      -0.02340000       2.20100000
H        0.69780000      -1.50320000       1.47980000
H        1.66620000      -0.01950000       1.49420000
H       -1.88920000      -0.26490000      -0.99140000
H       -1.44890000      -1.62120000       0.05850000
H       -2.01790000      -0.10180000       0.76570000
H        0.77070000      -1.74030000      -1.05580000
H        0.31880000      -0.39220000      -2.09750000
H        2.89910000      -0.46460000      -0.40930000
H        4.02320000      -0.36600000      -2.64360000
H        2.38960000      -0.40880000      -3.48620000
