20
Properties=species:S:1:pos:R:3 gdb_116334=T pbc="F F F"
C        0.60780000       1.14250000       0.22370000
O        0.62690000      -0.25870000       0.02410000
C        0.43380000      -0.63190000      -1.30920000
O        1.46300000      -0.16400000      -2.16470000
C        2.73780000      -0.81730000      -2.10670000
C        2.79710000      -2.03660000      -1.17210000
C        1.57340000      -2.90590000      -1.38700000
N        0.63450000      -2.98340000      -0.25400000
C        0.29780000      -2.14770000      -1.41550000
H        1.40410000       1.64480000      -0.33790000
H       -0.35760000       1.57560000      -0.08060000
H        0.75160000       1.31220000       1.29280000
H       -0.46280000      -0.13530000      -1.70960000
H        2.97970000      -1.12160000      -3.13360000
H        3.48600000      -0.07590000      -1.79980000
H        3.72710000      -2.58130000      -1.36140000
H        2.80180000      -1.70720000      -0.13080000
H        1.67270000      -3.77080000      -2.03790000
H        0.10030000      -3.84730000      -0.30620000
H       -0.49460000      -2.47860000      -2.08020000
