19
Properties=species:S:1:pos:R:3 gdb_101422=T pbc="F F F"
O        0.12460000       1.43910000       0.00540000
C        0.10270000       0.03050000       0.07990000
C       -1.33590000      -0.49250000       0.01620000
O       -1.97880000       0.03370000      -1.14870000
C       -1.41850000      -2.01690000       0.06260000
C       -2.80480000      -2.73730000       0.14510000
C       -2.36290000      -3.73530000      -0.97030000
C       -1.22670000      -2.75610000      -1.27410000
O       -0.59650000      -2.48620000      -2.26080000
H       -0.51990000       1.67050000      -0.67600000
H        0.68650000      -0.43290000      -0.73410000
H        0.56960000      -0.25570000       1.02930000
H       -1.89670000      -0.06840000       0.85760000
H       -1.53280000      -0.35440000      -1.91440000
H       -0.73040000      -2.41580000       0.81790000
H       -3.06750000      -3.16960000       1.11050000
H       -3.60610000      -2.07890000      -0.19560000
H       -1.98150000      -4.67790000      -0.56440000
H       -3.04900000      -3.95430000      -1.79130000
