13
Properties=species:S:1:pos:R:3 gdb_21630=T pbc="F F F"
N        0.04110000       1.29660000      -0.16790000
C       -0.02430000      -0.03360000      -0.03060000
N       -1.16210000      -0.66860000       0.06250000
C       -1.09020000      -2.02720000       0.19960000
N       -0.02690000      -2.76860000       0.24900000
N        1.14630000      -2.07550000       0.14890000
C        1.29010000      -0.71960000       0.00670000
N        2.36980000      -0.02770000      -0.09100000
H        0.95740000       1.71250000      -0.23390000
H       -0.80240000       1.84150000      -0.20340000
H       -2.03430000      -2.55510000       0.27710000
H        1.96930000      -2.65760000       0.18790000
H        3.21090000      -0.60340000      -0.05330000
