21
Properties=species:S:1:pos:R:3 gdb_100459=T pbc="F F F"
C       -0.02950000       1.53130000      -0.02170000
C        0.02670000      -0.00950000       0.01010000
C        0.66930000      -0.57490000      -1.27200000
C        0.73000000      -0.48000000       1.20410000
C        1.30800000      -0.85600000       2.19340000
C        2.06270000      -1.31980000       3.35250000
O        2.17080000      -2.75150000       3.40330000
C        3.47920000      -0.71650000       3.40090000
O        4.19450000      -1.24200000       4.49320000
H        0.97870000       1.95270000      -0.08090000
H       -0.59540000       1.86930000      -0.89550000
H       -0.51040000       1.92670000       0.87660000
H       -1.00610000      -0.38150000       0.06080000
H        1.70070000      -0.22350000      -1.37360000
H        0.68250000      -1.66800000      -1.25800000
H        0.10680000      -0.24820000      -2.15220000
H        1.54730000      -1.04940000       4.28170000
H        2.33700000      -3.05580000       2.50360000
H        3.98020000      -0.92030000       2.43890000
H        3.42180000       0.36940000       3.52460000
H        4.01220000      -2.19120000       4.48310000
