18
Properties=species:S:1:pos:R:3 gdb_38397=T pbc="F F F"
C        0.07000000       1.42250000       0.03630000
C        1.31920000       0.64680000      -0.03880000
C        1.71320000       0.11100000       1.33410000
C        0.30760000      -0.53180000       1.37680000
C        0.09980000      -2.07150000       1.55970000
C       -0.90960000      -1.75520000       2.66740000
O       -0.21780000      -0.97500000       3.65330000
C       -0.72660000      -0.30680000       2.49200000
N       -0.03480000      -0.05330000      -0.00900000
H       -0.18530000       1.95030000       0.95310000
H       -0.29470000       1.89220000      -0.87180000
H        1.93930000       0.62820000      -0.92880000
H        2.50560000      -0.63900000       1.30020000
H        1.96060000       0.85170000       2.10000000
H       -0.35430000      -2.49580000       0.66140000
H        0.96690000      -2.66140000       1.86690000
H       -1.77280000      -2.31950000       2.99920000
H       -1.40660000       0.52370000       2.64450000
