23
Properties=species:S:1:pos:R:3 gdb_121092=T pbc="F F F"
C       -0.15350000       1.54930000      -0.07930000
C       -0.03360000       0.02400000      -0.03950000
C        0.79960000      -0.54240000      -1.19370000
C        0.89250000      -2.07300000      -1.17320000
O       -0.41780000      -2.65050000      -1.28080000
C       -0.47030000      -3.55760000      -2.37330000
C        0.89180000      -3.50530000      -3.01930000
C        1.22660000      -4.30650000      -4.23490000
C        1.65710000      -2.66940000      -2.32280000
H        0.83060000       2.02900000      -0.02330000
H       -0.62990000       1.88480000      -1.00740000
H       -0.75370000       1.92440000       0.75580000
H        0.41500000      -0.28560000       0.91420000
H       -1.02890000      -0.43200000      -0.07210000
H        0.36970000      -0.23450000      -2.15550000
H        1.81860000      -0.13260000      -1.15520000
H        1.32740000      -2.37890000      -0.20470000
H       -0.71420000      -4.57200000      -2.01400000
H       -1.27380000      -3.26560000      -3.06900000
H        1.09670000      -5.38060000      -4.05100000
H        0.56470000      -4.05160000      -5.07230000
H        2.25820000      -4.13940000      -4.55470000
H        2.69180000      -2.42290000      -2.52880000
