17
Properties=species:S:1:pos:R:3 gdb_6458=T pbc="F F F"
C       -0.38690000       1.71510000      -0.18250000
C       -0.06880000       0.23410000      -0.15990000
C       -1.27110000      -0.64310000       0.17570000
O       -1.77880000      -0.35260000       1.46150000
C        0.86600000      -0.31230000      -1.26420000
C        1.82510000      -0.57100000      -0.12370000
N        2.97330000      -1.06470000      -0.03130000
O        0.98910000      -0.05680000       0.84800000
H        0.52550000       2.30750000      -0.28990000
H       -1.05020000       1.94230000      -1.02400000
H       -0.89470000       2.00450000       0.74050000
H       -2.08130000      -0.45530000      -0.53750000
H       -0.98140000      -1.70160000       0.08550000
H       -1.04930000      -0.48700000       2.07860000
H        0.52170000      -1.20620000      -1.78850000
H        1.21420000       0.42470000      -1.98990000
H        3.29910000      -1.06780000       0.93690000
