14
Properties=species:S:1:pos:R:3 gdb_46007=T pbc="F F F"
N       -0.04060000       1.17020000      -0.60660000
C        0.02870000       0.05460000      -0.01370000
N       -1.14400000      -0.59390000       0.37300000
C       -1.16730000      -1.88290000       0.83240000
C       -0.03290000      -2.46950000       1.26400000
C        1.20800000      -1.60980000       1.27410000
O        1.17400000      -0.62570000       0.22150000
C        0.01570000      -3.80370000       1.72510000
N        0.09390000      -4.89300000       2.11750000
H        0.89230000       1.51860000      -0.81600000
H       -1.98850000      -0.13960000       0.06460000
H       -2.12820000      -2.38160000       0.82540000
H        1.32190000      -1.09000000       2.23560000
H        2.10990000      -2.19630000       1.09340000
