18
Properties=species:S:1:pos:R:3 gdb_55189=T pbc="F F F"
O        0.52010000       0.44860000      -0.30930000
C       -0.15560000       1.04960000       0.48580000
O        0.15170000       1.06000000       1.79500000
C       -1.41570000       1.81020000       0.07690000
C       -2.68070000       1.60420000       0.98460000
C       -2.54110000       3.05370000       1.47230000
N       -1.43000000       3.20690000       2.46890000
H       -1.65590000       3.70730000       3.32030000
H       -0.44900000       1.67800000       2.28350000
C       -0.59120000       3.93460000       1.46980000
C       -1.49180000       3.36510000       0.36190000
H       -1.58140000       1.57280000      -0.97250000
H       -3.58020000       1.45790000       0.38110000
H       -2.63060000       0.82280000       1.74640000
H       -3.42810000       3.66020000       1.66970000
H       -0.68830000       5.02540000       1.53310000
H        0.46820000       3.66340000       1.48950000
H       -1.69060000       3.97850000      -0.51390000
