21
Properties=species:S:1:pos:R:3 gdb_56645=T pbc="F F F"
C       -0.02590000       1.41450000      -0.31200000
C        0.18650000      -0.05840000      -0.03800000
C        1.56990000      -0.67030000       0.01370000
C        0.73240000      -0.59520000       1.26730000
C        1.14280000       0.34390000       2.38470000
C        0.10040000      -1.89940000       1.79050000
O       -0.41840000      -2.73280000       0.75620000
C        1.03600000      -2.65290000       2.63360000
C        1.82210000      -3.29500000       3.27870000
H        0.78060000       2.03450000       0.08920000
H       -0.06880000       1.59790000      -1.39140000
H       -0.96750000       1.77220000       0.12010000
H       -0.55870000      -0.70500000      -0.49100000
H        1.71950000      -1.63270000      -0.46520000
H        2.42750000      -0.00770000      -0.05230000
H        1.60230000       1.25570000       1.99760000
H        0.27810000       0.64010000       2.99150000
H        1.86730000      -0.13650000       3.04980000
H       -0.77340000      -1.62270000       2.39660000
H        0.29610000      -3.30500000       0.45770000
H        2.50540000      -3.85990000       3.86370000
