23
Properties=species:S:1:pos:R:3 gdb_76206=T pbc="F F F"
C       -0.22150000       1.51400000       0.06310000
C       -0.05390000      -0.00540000      -0.00260000
C       -1.38440000      -0.68800000      -0.30730000
C        1.15650000      -0.44880000      -0.88990000
C        2.03090000      -0.63880000       0.38290000
C        2.92260000      -1.86450000       0.48370000
O        2.75690000       0.54550000       0.72100000
C        0.72580000      -0.58670000       1.23390000
O        0.77000000       0.11950000       2.44010000
H        0.73470000       2.01750000       0.22550000
H       -0.64730000       1.89190000      -0.87350000
H       -0.89450000       1.79310000       0.88000000
H       -1.78470000      -0.36390000      -1.27540000
H       -1.27700000      -1.77800000      -0.34110000
H       -2.13230000      -0.44880000       0.45760000
H        0.97620000      -1.39100000      -1.41580000
H        1.52910000       0.28860000      -1.60720000
H        3.74480000      -1.81490000      -0.24200000
H        3.35590000      -1.93810000       1.48600000
H        2.35750000      -2.77940000       0.28050000
H        3.47260000       0.65790000       0.08740000
H        0.37100000      -1.59810000       1.46170000
H        1.43150000       0.81310000       2.32150000
