19
Properties=species:S:1:pos:R:3 gdb_115988=T pbc="F F F"
O        0.13820000       1.42370000      -0.20350000
C        0.03980000       0.01980000      -0.08020000
C       -1.40560000      -0.48870000       0.03120000
C       -1.51190000      -2.03080000      -0.07540000
C       -2.64290000      -2.45190000       0.89400000
C       -2.74150000      -1.27910000       1.83140000
C       -2.08000000      -0.20480000       1.37370000
C       -2.01970000       1.06240000       2.00680000
C       -1.93730000       2.15080000       2.52220000
H       -0.24280000       1.81310000       0.59260000
H        0.49370000      -0.39670000      -0.98680000
H        0.62190000      -0.35830000       0.77730000
H       -1.97790000       0.00550000      -0.76600000
H       -1.68230000      -2.36480000      -1.10150000
H       -0.56620000      -2.47510000       0.25730000
H       -3.59770000      -2.60160000       0.36930000
H       -2.43090000      -3.39370000       1.41250000
H       -3.31610000      -1.29740000       2.75040000
H       -1.89060000       3.10320000       2.99020000
