15
Properties=species:S:1:pos:R:3 gdb_28635=T pbc="F F F"
C       -0.01490000       1.52500000       0.00420000
C        0.00030000       0.02010000       0.01220000
C       -0.08900000      -0.71520000      -1.17620000
N       -0.08200000      -2.04330000      -1.24880000
C        0.01800000      -2.71910000      -0.09710000
C        0.11320000      -2.09750000       1.15150000
C        0.10350000      -0.71120000       1.19700000
C        0.02530000      -4.15660000      -0.18020000
N        0.03430000      -5.31300000      -0.20810000
H        0.90090000       1.93270000       0.44580000
H       -0.10090000       1.91530000      -1.01280000
H       -0.85560000       1.91570000       0.58780000
H       -0.17120000      -0.19110000      -2.12630000
H        0.19210000      -2.69420000       2.05230000
H        0.17590000      -0.19820000       2.15130000
