20
Properties=species:S:1:pos:R:3 gdb_64457=T pbc="F F F"
C        0.09840000       1.56400000      -0.04370000
C        0.04470000       0.03270000      -0.01850000
O       -1.31280000      -0.41220000       0.07870000
C        0.61140000      -0.57760000      -1.30570000
C        0.98330000      -2.04570000      -1.10590000
C        2.08250000      -2.14930000      -0.05140000
N        1.69690000      -1.42680000       1.15660000
C        0.73330000      -0.47690000       1.26840000
O        0.36480000      -0.04880000       2.35370000
H        1.12690000       1.92690000      -0.14440000
H       -0.48910000       1.93350000      -0.88910000
H       -0.31360000       1.96430000       0.88530000
H       -1.59070000      -0.21080000       0.98220000
H       -0.14160000      -0.45930000      -2.09080000
H        1.49840000      -0.01200000      -1.61580000
H        0.09950000      -2.60240000      -0.77670000
H        1.33450000      -2.49610000      -2.03920000
H        2.26800000      -3.19460000       0.21750000
H        3.02510000      -1.74840000      -0.45310000
H        2.08100000      -1.72450000       2.04240000
