15
Properties=species:S:1:pos:R:3 gdb_26538=T pbc="F F F"
C       -0.00000000       1.54150000       0.03170000
C       -0.00190000       0.03730000       0.01590000
C       -1.15400000      -0.67750000       0.05660000
N       -2.42480000      -0.17900000       0.16260000
O       -1.16540000      -2.03920000       0.04520000
C        0.04930000      -2.65940000       0.00010000
N        1.18620000      -2.11230000      -0.03800000
C        1.26670000      -0.68230000      -0.03670000
O        2.35250000      -0.14060000      -0.08040000
H        1.03540000       1.88230000      -0.01530000
H       -0.53630000       1.96860000      -0.82640000
H       -0.45560000       1.94650000       0.94350000
H       -2.54580000       0.78270000      -0.11240000
H       -3.16390000      -0.79940000      -0.13130000
H       -0.09170000      -3.73670000       0.00070000
