22
Properties=species:S:1:pos:R:3 gdb_10522=T pbc="F F F"
C       -0.55000000       0.70290000       3.65780000
C       -0.31030000      -0.69880000       3.08940000
C        0.59860000      -0.68690000       1.85220000
C        0.93490000      -2.06390000       1.29770000
C       -0.22780000      -2.84980000       0.73500000
O       -0.79780000      -2.10760000      -0.33740000
C        2.26700000      -2.24580000       0.61120000
C        2.02870000      -2.86250000       1.96800000
H       -1.01490000       1.35740000       2.91210000
H       -1.20780000       0.67440000       4.53220000
H        0.39170000       1.17210000       3.96480000
H        0.13520000      -1.33970000       3.86120000
H       -1.27610000      -1.15240000       2.83490000
H        0.12540000      -0.09600000       1.05900000
H        1.53510000      -0.17350000       2.10650000
H        0.13060000      -3.83300000       0.38950000
H       -0.97600000      -3.03620000       1.52130000
H       -1.61400000      -2.54200000      -0.60130000
H        2.31180000      -2.90410000      -0.24990000
H        2.92770000      -1.38780000       0.54790000
H        2.52200000      -2.41830000       2.82630000
H        1.92360000      -3.94110000       2.03030000
