20
Properties=species:S:1:pos:R:3 gdb_30091=T pbc="F F F"
C       -0.65520000       1.32060000       0.31760000
C       -0.16190000      -0.10030000       0.17110000
C        1.17160000      -0.38850000      -0.46480000
C        0.99490000      -0.63270000       1.01520000
C        1.69640000       0.21230000       2.00330000
C        2.85010000       0.96620000       1.92760000
C        3.07080000       1.56320000       3.20070000
C        2.04850000       1.15770000       4.02480000
N        1.22380000       0.34150000       3.29190000
H        0.16790000       1.99960000       0.55750000
H       -1.12400000       1.67020000      -0.60890000
H       -1.39880000       1.40570000       1.11860000
H       -0.94270000      -0.82980000      -0.02950000
H        1.27280000      -1.24900000      -1.11670000
H        1.77590000       0.46400000      -0.75620000
H        0.89740000      -1.67850000       1.30240000
H        3.47530000       1.06070000       1.05300000
H        3.88850000       2.21020000       3.47870000
H        1.83830000       1.37660000       5.05950000
H        0.37870000      -0.08450000       3.63050000
