23
Properties=species:S:1:pos:R:3 gdb_83809=T pbc="F F F"
C       -0.16120000       1.59080000      -0.00970000
C       -0.00090000       0.08740000      -0.01250000
C        0.68620000      -0.66850000      -1.13500000
C        1.36840000       0.05800000      -2.29220000
C        2.90130000       0.10110000      -2.13650000
C        3.32030000       0.48810000      -0.73830000
C        2.60780000       0.18230000       0.35140000
C        3.03870000       0.55810000       1.74340000
C        1.34040000      -0.59300000       0.22650000
H        0.75930000       2.10010000      -0.30590000
H       -0.95750000       1.90840000      -0.69300000
H       -0.42580000       1.94770000       0.99180000
H       -0.84800000      -0.43740000       0.42330000
H        0.23840000      -1.62280000      -1.39450000
H        1.10430000      -0.42850000      -3.23690000
H        0.99860000       1.08620000      -2.36800000
H        3.32890000      -0.88140000      -2.38770000
H        3.32750000       0.80200000      -2.86360000
H        4.25920000       1.02700000      -0.62810000
H        3.98890000       1.09970000       1.74050000
H        2.28570000       1.18710000       2.23490000
H        3.15660000      -0.33230000       2.37490000
H        1.30250000      -1.48560000       0.84830000
