15
Properties=species:S:1:pos:R:3 gdb_128510=T pbc="F F F"
C       -0.30250000       1.26140000      -0.13170000
O       -0.12770000      -0.15840000      -0.08980000
C        0.59700000      -0.69440000      -1.08670000
C        0.76560000      -2.02310000      -1.35260000
C        0.21840000      -3.24750000      -0.68780000
O       -1.07360000      -3.02770000      -0.16210000
O        1.58040000      -2.10650000      -2.40860000
N        1.90970000      -0.78400000      -2.79760000
N        1.31840000       0.01060000      -2.00550000
H        0.66030000       1.77420000      -0.05130000
H       -0.79320000       1.56550000      -1.06150000
H       -0.93230000       1.50700000       0.72330000
H        0.13550000      -4.05190000      -1.42480000
H        0.92280000      -3.59210000       0.08750000
H       -1.04250000      -2.24050000       0.39440000
