17
Properties=species:S:1:pos:R:3 gdb_113694=T pbc="F F F"
O       -0.60850000       0.53780000      -1.87270000
C       -0.01110000      -0.07970000      -0.74840000
C       -1.02020000      -0.27170000       0.35610000
O       -1.96080000      -1.34290000       0.19890000
C       -1.04820000      -1.41410000       1.29470000
C       -0.03880000      -2.52730000       1.29970000
O        0.79270000      -2.60360000       2.17980000
C       -0.13250000      -3.61720000       0.24480000
O        0.87570000      -4.56570000       0.41440000
H       -1.30530000      -0.04870000      -2.18770000
H        0.46530000      -1.03380000      -1.01090000
H        0.77540000       0.60020000      -0.40410000
H       -1.47600000       0.65490000       0.70780000
H       -1.47810000      -1.23040000       2.27990000
H       -1.14070000      -4.06020000       0.33250000
H       -0.09600000      -3.17240000      -0.75950000
H        1.33710000      -4.31030000       1.22930000
