14
Properties=species:S:1:pos:R:3 gdb_18543=T pbc="F F F"
O       -0.26820000       0.22310000       0.46720000
C       -0.08600000       1.32260000       0.05280000
O       -0.98830000       2.14150000      -0.57570000
C        0.01140000       3.23660000      -0.67360000
C       -0.21800000       4.33120000       0.32230000
C        0.56780000       4.18870000       1.39140000
C        1.49500000       2.99700000       1.30380000
C        1.07330000       2.32480000      -0.01970000
H        0.11030000       3.53600000      -1.71780000
H       -0.95350000       5.11260000       0.17600000
H        0.56400000       4.84550000       2.25480000
H        2.54600000       3.30820000       1.27930000
H        1.39120000       2.32460000       2.16300000
H        1.90090000       1.98060000      -0.63940000
