17
Properties=species:S:1:pos:R:3 gdb_110959=T pbc="F F F"
C        0.00470000       1.31430000      -0.24240000
O       -0.03430000       0.04450000       0.37920000
C       -1.26830000      -0.58790000       0.26860000
C       -1.59530000      -1.37660000      -1.06750000
C       -0.48310000      -2.39020000      -0.62550000
C       -1.27240000      -2.08410000       0.71800000
O       -1.03860000      -2.56080000       1.97840000
C       -2.50940000      -2.21320000      -0.17280000
O       -3.57690000      -2.74930000      -0.16020000
H        0.98890000       1.74040000      -0.03710000
H       -0.13510000       1.24190000      -1.33040000
H       -0.76690000       1.98450000       0.16460000
H       -2.07590000       0.04690000       0.65720000
H       -1.77670000      -0.97640000      -2.05860000
H       -0.54570000      -3.40350000      -1.02320000
H        0.52580000      -1.98600000      -0.64010000
H       -1.73710000      -3.18920000       2.19660000
