18
Properties=species:S:1:pos:R:3 gdb_18617=T pbc="F F F"
C       -0.16570000       1.48800000       0.21100000
C        0.05910000       0.00400000       0.01130000
C        0.56280000      -0.64260000      -1.24050000
C        1.27410000       0.22640000      -2.28520000
C        2.50670000       0.84180000      -1.58630000
C        2.64710000       0.12390000      -0.23290000
O        3.62430000       0.16630000       0.47400000
C        1.42140000      -0.69530000       0.01800000
H        0.53080000       2.11090000      -0.35310000
H       -1.17800000       1.76020000      -0.10750000
H       -0.06710000       1.75600000       1.26790000
H       -0.68050000      -0.59760000       0.53540000
H        0.05910000      -1.53600000      -1.59310000
H        1.59110000      -0.40920000      -3.11700000
H        0.60690000       0.98580000      -2.70580000
H        3.43190000       0.69980000      -2.15110000
H        2.41980000       1.91940000      -1.41170000
H        1.53850000      -1.57500000       0.63900000
