20
Properties=species:S:1:pos:R:3 gdb_60945=T pbc="F F F"
C        0.18240000       1.27680000       0.28000000
C       -0.17980000      -0.20990000       0.14400000
C       -1.68160000      -0.32710000      -0.08210000
O       -2.48360000      -0.56730000       0.78190000
N        0.48880000      -0.76360000      -1.02670000
C        1.89360000      -1.10660000      -1.05250000
C        2.38860000      -1.72950000       0.26900000
C        1.28600000      -2.82750000       0.13600000
C        0.82050000      -2.16630000      -1.17580000
H        1.26280000       1.38750000       0.41170000
H       -0.10620000       1.82770000      -0.62040000
H       -0.32130000       1.71730000       1.14440000
H        0.04600000      -0.72530000       1.08680000
H       -1.98600000      -0.14350000      -1.13740000
H        2.51830000      -0.65510000      -1.81590000
H        3.39480000      -2.14330000       0.17790000
H        2.35840000      -1.08490000       1.15240000
H        1.71360000      -3.81710000      -0.03710000
H        0.54410000      -2.90690000       0.93580000
H        0.45310000      -2.68630000      -2.05390000
