20
Properties=species:S:1:pos:R:3 gdb_58850=T pbc="F F F"
C       -0.08900000       1.57770000       0.26640000
C        0.01970000       0.06000000       0.03420000
C        0.89570000      -0.61800000       1.09620000
C       -1.35700000      -0.54300000      -0.07800000
N       -2.24730000      -0.84410000       1.10180000
C       -1.94610000      -1.91630000       0.14200000
C       -2.97640000      -1.75260000      -0.98300000
C       -2.32310000      -0.36240000      -1.23450000
O       -2.39230000       0.43450000      -2.12570000
H        0.90370000       2.03870000       0.27450000
H       -0.68170000       2.04600000      -0.52350000
H       -0.57100000       1.79220000       1.22640000
H        0.49870000      -0.09220000      -0.94280000
H        0.96100000      -1.69980000       0.94080000
H        1.91180000      -0.21430000       1.05830000
H        0.51940000      -0.43770000       2.11010000
H       -1.61660000      -0.95530000       1.89670000
H       -1.43080000      -2.82070000       0.43760000
H       -2.82560000      -2.40670000      -1.84640000
H       -4.02350000      -1.76580000      -0.67400000
