13
Properties=species:S:1:pos:R:3 gdb_9455=T pbc="F F F"
O        0.24150000       1.44150000       0.30450000
C        0.01890000       0.08200000       0.05880000
C       -1.48430000      -0.30800000      -0.11190000
C       -1.17170000      -1.04920000      -1.44940000
C        0.19700000      -0.37170000      -1.43960000
O        1.02110000      -0.07660000      -2.24790000
C        0.74510000      -0.79330000       0.98840000
N        1.33450000      -1.49450000       1.69430000
H        1.13560000       1.65580000       0.00780000
H       -1.91410000      -0.90390000       0.69130000
H       -2.06770000       0.60170000      -0.25920000
H       -1.08000000      -2.13300000      -1.32630000
H       -1.80230000      -0.84610000      -2.31690000
