18
Properties=species:S:1:pos:R:3 gdb_79020=T pbc="F F F"
O       -0.01850000       1.47960000      -0.08670000
C        0.01620000       0.08430000       0.03090000
C        0.12710000      -0.59330000       1.43060000
C       -0.98740000       0.07140000       2.26210000
C       -2.11380000      -0.93140000       2.38740000
C       -1.57730000      -2.23960000       1.83490000
N       -0.64610000      -1.73890000       0.81240000
C       -1.35280000      -0.62430000       0.06730000
C       -2.10380000       0.04880000       1.23520000
H        0.88410000       1.79970000      -0.17330000
H        0.69140000      -0.38370000      -0.69330000
H        1.07860000      -0.82620000       1.91110000
H       -0.82360000       0.88590000       2.95250000
H       -2.84740000      -0.86950000       3.18150000
H       -1.03440000      -2.83780000       2.57430000
H       -2.34480000      -2.86580000       1.36770000
H       -1.90680000      -0.88490000      -0.83490000
H       -2.82280000       0.84480000       1.11020000
