14
Properties=species:S:1:pos:R:3 gdb_15322=T pbc="F F F"
O        0.12660000       0.06550000      -0.15750000
C        0.18450000       1.25020000      -0.26720000
O        1.04950000       2.00100000       0.45930000
C        1.02280000       3.39280000       0.23570000
C        2.12470000       4.16550000       0.84400000
C        2.06560000       4.02270000      -0.68010000
C        3.09290000       3.17590000      -1.33910000
O        3.53630000       3.39870000      -2.43780000
H       -0.44570000       1.85590000      -0.94500000
H        0.02360000       3.81820000       0.21000000
H        1.91750000       5.13830000       1.27250000
H        2.89340000       3.59060000       1.34970000
H        1.75080000       4.87960000      -1.26530000
H        3.44100000       2.31000000      -0.73580000
