21
Properties=species:S:1:pos:R:3 gdb_63429=T pbc="F F F"
C       -0.10280000       1.51030000      -0.03250000
C       -0.07490000      -0.01840000      -0.00620000
C       -1.45130000      -0.61360000      -0.27270000
C        1.10750000      -0.59930000      -0.83960000
N        1.91610000      -0.64300000       0.39450000
C        2.82340000      -1.75530000       0.56650000
C        3.54220000      -1.67000000       1.84380000
N        4.09440000      -1.61500000       2.85670000
C        0.69840000      -0.57140000       1.22920000
H        0.89210000       1.92260000       0.15880000
H       -0.44440000       1.87850000      -1.00650000
H       -0.78590000       1.90120000       0.72980000
H       -1.82930000      -0.30180000      -1.25320000
H       -1.42930000      -1.70780000      -0.25390000
H       -2.17510000      -0.27940000       0.47940000
H        0.87470000      -1.59880000      -1.24340000
H        1.52840000       0.01940000      -1.64010000
H        2.31930000      -2.74160000       0.52750000
H        3.56100000      -1.74340000      -0.24500000
H        0.78750000       0.06890000       2.11240000
H        0.32880000      -1.56240000       1.54020000
