11
Properties=species:S:1:pos:R:3 gdb_42182=T pbc="F F F"
O        0.41200000       0.94670000      -1.47410000
C        0.06220000       1.43410000      -0.43510000
C        0.95710000       1.49680000       0.73470000
N        1.67220000       1.50270000       1.64270000
C       -1.31150000       2.01980000      -0.20470000
C       -1.97830000       1.81360000       1.11260000
O       -1.38110000       3.05180000       0.77820000
C       -2.11930000       2.19140000      -1.39430000
N       -2.77630000       2.32770000      -2.33360000
H       -3.06560000       1.79540000       1.12170000
H       -1.46680000       1.23240000       1.87680000
