14
Properties=species:S:1:pos:R:3 gdb_56952=T pbc="F F F"
O       -0.28460000       1.29410000      -0.08160000
C       -0.04730000      -0.08360000      -0.09660000
C        0.84610000      -0.47900000      -1.21520000
N        1.55610000      -0.79340000      -2.07050000
C        0.57560000      -0.58200000       1.21130000
N        1.35900000       0.42290000       1.91660000
C        0.13100000      -0.09310000       2.55250000
C       -0.96290000       0.82620000       2.76510000
N       -1.85590000       1.51870000       3.00580000
H        0.47490000       1.70320000       0.36170000
H       -1.01310000      -0.57840000      -0.25200000
H        0.93870000      -1.60640000       1.17870000
H        2.19240000       0.04280000       2.35460000
H        0.24770000      -0.80250000       3.36820000
