20
Properties=species:S:1:pos:R:3 gdb_72664=T pbc="F F F"
C       -0.28870000       1.52360000       0.11900000
C       -0.01030000       0.04340000       0.00970000
C       -1.22220000      -0.92970000       0.04020000
C       -0.56890000      -1.75360000       1.18660000
C        0.67160000      -0.81050000       1.17940000
C        1.79530000      -1.23520000       0.18680000
C        1.12220000      -0.41560000      -0.95120000
C        1.07680000      -0.23370000       2.43700000
N        1.39400000       0.25300000       3.43860000
H        0.63270000       2.09420000       0.27600000
H       -0.75860000       1.89160000      -0.80140000
H       -0.96490000       1.74390000       0.95170000
H       -2.15340000      -0.44340000       0.34120000
H       -1.40520000      -1.46860000      -0.89320000
H       -1.12730000      -1.71610000       2.12310000
H       -0.33450000      -2.79790000       0.96580000
H        2.77930000      -0.85940000       0.47100000
H        1.86870000      -2.31470000       0.03410000
H        0.78680000      -0.98800000      -1.82010000
H        1.74260000       0.41100000      -1.30630000
