19
Properties=species:S:1:pos:R:3 gdb_115027=T pbc="F F F"
C        0.15280000       1.39350000       0.09930000
O       -0.03540000       0.00410000      -0.02200000
C        0.61750000      -0.57150000      -1.13290000
C        2.10420000      -0.89040000      -0.81730000
C        2.06600000      -2.32950000      -0.36490000
C        0.91450000      -2.91880000      -0.67010000
C       -0.02160000      -1.97190000      -1.40730000
C       -1.43080000      -2.08990000      -1.05580000
C       -2.59580000      -2.23560000      -0.80030000
H        1.20650000       1.66680000       0.26320000
H       -0.20490000       1.92960000      -0.79400000
H       -0.42810000       1.72140000       0.96460000
H        0.50890000       0.08660000      -2.00670000
H        2.73710000      -0.77030000      -1.70760000
H        2.49870000      -0.20760000      -0.05720000
H        2.90320000      -2.81190000       0.12660000
H        0.64280000      -3.94860000      -0.47470000
H        0.06680000      -2.16880000      -2.48750000
H       -3.62310000      -2.34780000      -0.55740000
