17
Properties=species:S:1:pos:R:3 gdb_44355=T pbc="F F F"
N       -0.05150000       1.13210000      -0.89530000
C        0.01070000       0.14390000      -0.10740000
C       -1.25610000      -0.55820000       0.35010000
C       -1.07480000      -2.03070000       0.68850000
C        0.28110000      -2.60920000       0.73490000
C        1.20670000      -1.48420000       1.18590000
C        0.37700000      -1.44680000       2.49470000
N       -0.56060000      -2.50840000       1.99610000
O        1.20800000      -0.32080000       0.36010000
H        0.88750000       1.48610000      -1.08980000
H       -1.67560000      -0.01600000       1.20650000
H       -1.98090000      -0.44540000      -0.45740000
H       -1.86300000      -2.68650000       0.33310000
H        0.56950000      -3.55340000       0.28800000
H        2.25580000      -1.74310000       1.31860000
H        0.93130000      -1.83040000       3.35330000
H       -0.09010000      -0.49600000       2.76700000
