18
Properties=species:S:1:pos:R:3 gdb_35754=T pbc="F F F"
C       -0.38250000      -1.14160000      -0.65440000
C       -0.17410000      -0.00730000      -0.31620000
C        0.05050000       1.35910000       0.14690000
C       -0.56140000       1.54020000       1.57830000
O        0.09860000       2.55230000       2.33190000
C        1.47610000       2.69070000       2.00620000
C        1.59950000       3.15840000       0.54400000
N        1.49700000       1.70880000       0.12110000
C        2.07720000       1.36780000       1.47670000
H       -0.55900000      -2.13900000      -0.97360000
H       -0.43880000       2.04870000      -0.55120000
H       -1.61580000       1.82160000       1.51490000
H       -0.50590000       0.58260000       2.11070000
H        1.94260000       3.24510000       2.82420000
H        0.81480000       3.81850000       0.16490000
H        2.58550000       3.54850000       0.27510000
H        3.16840000       1.39410000       1.42240000
H        1.75910000       0.41710000       1.90880000
