23
Properties=species:S:1:pos:R:3 gdb_104884=T pbc="F F F"
C        0.83260000      -0.75060000      -1.02350000
C        0.00260000      -0.05670000       0.06110000
C       -1.49090000      -0.41200000       0.02630000
C       -1.80290000      -1.89580000       0.29390000
C       -3.25060000      -1.83160000       0.77720000
O       -3.34630000      -0.62800000       1.53720000
C       -2.30280000       0.26170000       1.15720000
O       -2.08250000      -0.15980000      -1.25770000
C       -2.00480000       1.15040000      -1.77280000
H        1.87320000      -0.41440000      -0.99100000
H        0.83060000      -1.83710000      -0.89110000
H        0.43630000      -0.54150000      -2.02070000
H        0.38810000      -0.32240000       1.05220000
H        0.12070000       1.03120000      -0.02060000
H       -1.67170000      -2.50260000      -0.60320000
H       -1.14780000      -2.27670000       1.08410000
H       -3.94110000      -1.79990000      -0.07700000
H       -3.53430000      -2.66780000       1.42400000
H       -1.66360000       0.46290000       2.02830000
H       -2.73380000       1.21690000       0.83530000
H       -2.41170000       1.90630000      -1.08680000
H       -0.97820000       1.44190000      -2.03530000
H       -2.60780000       1.15890000      -2.68460000
