22
Properties=species:S:1:pos:R:3 gdb_101116=T pbc="F F F"
C        0.09720000       1.60100000      -0.02990000
C        0.08170000       0.06720000      -0.00600000
C        0.61200000      -0.52980000      -1.31320000
O       -0.20800000      -0.06960000      -2.37730000
C        0.83610000      -0.50960000       1.16820000
C        0.40450000      -1.73350000       1.87790000
N        0.29600000      -0.44430000       2.59140000
C        1.69480000      -0.14670000       3.06260000
C        2.25480000      -0.13250000       1.61730000
H        1.11280000       1.99020000      -0.16610000
H       -0.51090000       1.97070000      -0.85780000
H       -0.29960000       2.00090000       0.90750000
H       -0.96170000      -0.25960000       0.09420000
H        1.66150000      -0.22310000      -1.46000000
H        0.59700000      -1.62910000      -1.24700000
H        0.15480000      -0.40180000      -3.20330000
H       -0.56190000      -2.15360000       1.61530000
H        1.13740000      -2.46310000       2.22010000
H        1.72340000       0.82660000       3.55630000
H        2.09390000      -0.90350000       3.74670000
H        3.04920000      -0.84130000       1.36480000
H        2.56380000       0.86450000       1.29930000
