18
Properties=species:S:1:pos:R:3 gdb_73337=T pbc="F F F"
C       -0.05020000       1.52340000       0.03060000
C       -0.02150000       0.00980000       0.05530000
C       -1.38050000      -0.71310000      -0.08530000
C       -1.05600000      -2.20010000       0.20280000
C        0.29550000      -2.15280000       0.90890000
C        0.71830000      -0.77930000       1.17250000
N        1.48550000      -1.62240000       0.13490000
C        0.97530000      -0.70720000      -0.86850000
O        1.36630000      -0.54110000      -1.98320000
H        0.94680000       1.94610000       0.18690000
H       -0.41190000       1.87860000      -0.93900000
H       -0.71600000       1.91760000       0.80600000
H       -2.08050000      -0.31230000       0.65660000
H       -1.81630000      -0.55680000      -1.07610000
H       -1.80360000      -2.66700000       0.85040000
H       -0.99930000      -2.79960000      -0.71140000
H        0.59510000      -2.97000000       1.55610000
H        1.23490000      -0.38220000       2.03610000
