14
Properties=species:S:1:pos:R:3 gdb_25869=T pbc="F F F"
O        0.26560000       0.04340000       0.03280000
C        0.09520000       1.25830000       0.01680000
O        0.86500000       2.25250000       0.00650000
C       -1.37670000       1.75030000       0.00970000
C       -2.64330000       1.27320000       0.02560000
N       -3.49550000       2.39220000       0.02170000
C       -2.75180000       3.51660000       0.00570000
N       -3.24030000       4.79270000      -0.07910000
H       -4.10980000       4.96860000       0.40350000
H       -2.55610000       5.51660000       0.08520000
N       -1.48250000       3.13500000      -0.00000000
H       -3.02730000       0.26960000       0.04840000
H       -4.50170000       2.37130000      -0.02140000
H       -0.54920000       3.57870000      -0.00430000
