18
Properties=species:S:1:pos:R:3 gdb_15157=T pbc="F F F"
C        0.08860000       1.35530000       0.04350000
N        0.59440000       0.00070000       0.10960000
C        0.57500000      -0.67640000      -0.94870000
O        0.99230000      -1.95930000      -0.95560000
C        1.11370000      -2.58730000      -2.23270000
C        1.01880000      -4.07530000      -2.05030000
C        1.79690000      -4.96220000      -2.95230000
N        2.16250000      -4.83700000      -1.53480000
H        0.86690000       2.05440000       0.36990000
H       -0.25150000       1.66000000      -0.96030000
H       -0.75120000       1.46910000       0.73850000
H        0.21560000      -0.30950000      -1.92450000
H        0.31810000      -2.23320000      -2.90370000
H        2.08100000      -2.32040000      -2.68360000
H        0.05940000      -4.41950000      -1.67080000
H        1.39290000      -5.92800000      -3.24070000
H        2.43070000      -4.49690000      -3.70390000
H        2.96930000      -4.22650000      -1.42610000
