19
Properties=species:S:1:pos:R:3 gdb_2726=T pbc="F F F"
C        0.02370000       1.51140000      -0.06760000
C        0.02340000      -0.00750000      -0.03010000
O        0.67590000      -0.48750000      -1.18640000
C        0.73210000      -1.89470000      -1.25230000
C        1.45330000      -2.29090000      -2.53310000
C        1.56700000      -3.80030000      -2.69950000
O        2.25150000      -4.05120000      -3.91730000
H        1.04790000       1.89400000      -0.09390000
H       -0.49870000       1.87290000      -0.95800000
H       -0.47640000       1.91580000       0.81750000
H        0.53690000      -0.37230000       0.87650000
H       -1.01000000      -0.39340000       0.01230000
H        1.25980000      -2.29880000      -0.36980000
H       -0.28740000      -2.32010000      -1.23440000
H        0.91990000      -1.87350000      -3.39360000
H        2.45690000      -1.85260000      -2.53460000
H        2.10940000      -4.23230000      -1.84200000
H        0.56160000      -4.25340000      -2.70770000
H        2.32570000      -5.00320000      -4.02920000
