14
Properties=species:S:1:pos:R:3 gdb_30535=T pbc="F F F"
N        0.00650000       1.29890000      -0.05930000
C        0.06160000      -0.05030000      -0.02920000
N        1.18610000      -0.67240000       0.01270000
C        1.19950000      -2.03480000       0.00350000
N        2.26580000      -2.78780000       0.07070000
C        1.78200000      -4.07500000       0.03050000
O        2.61310000      -5.13360000       0.08010000
C        0.42990000      -4.07310000      -0.06090000
O        0.04160000      -2.74440000      -0.07980000
H        0.86200000       1.82090000       0.04450000
H       -0.86790000       1.78070000       0.04220000
H       -0.91210000      -0.54610000      -0.06240000
H        3.50550000      -4.77160000       0.14090000
H       -0.34130000      -4.81780000      -0.12030000
