18
Properties=species:S:1:pos:R:3 gdb_29269=T pbc="F F F"
C        0.02950000       1.48270000       0.06030000
C        0.00130000      -0.00910000      -0.00980000
C       -0.16090000      -0.81170000      -1.10870000
N       -0.11710000      -2.10870000      -0.63170000
C        0.07140000      -2.04060000       0.71540000
N        0.14260000      -0.78950000       1.12020000
C        0.16800000      -3.22230000       1.59180000
C        1.18100000      -3.22650000       2.68820000
N       -0.24320000      -3.07510000       2.99840000
H        0.97980000       1.84060000       0.47130000
H       -0.10190000       1.92570000      -0.93060000
H       -0.76480000       1.86140000       0.71260000
H       -0.30230000      -0.59280000      -2.15390000
H       -0.20450000      -2.94820000      -1.17940000
H       -0.11550000      -4.16750000       1.13380000
H        1.62630000      -4.16600000       3.00470000
H        1.82200000      -2.35260000       2.75640000
H       -0.44100000      -2.08570000       3.14730000
