15
Properties=species:S:1:pos:R:3 gdb_11370=T pbc="F F F"
O       -0.02240000       1.42270000       0.00670000
C       -0.00360000       0.00520000       0.00200000
C       -1.40690000      -0.49600000       0.01240000
C       -2.52410000       0.23880000       0.02380000
N       -3.66940000      -0.57610000       0.03120000
C       -3.34260000      -1.91850000       0.02480000
O       -4.11760000      -2.84630000       0.02880000
C       -1.80080000      -1.95260000       0.01180000
H        0.88640000       1.73510000      -0.00000000
H        0.52590000      -0.38430000      -0.88640000
H        0.54100000      -0.39000000       0.87870000
H       -2.62060000       1.31320000       0.02760000
H       -4.62120000      -0.25080000       0.04020000
H       -1.45790000      -2.50450000      -0.87170000
H       -1.44320000      -2.50930000       0.88640000
