27
Properties=species:S:1:pos:R:3 gdb_101249=T pbc="F F F"
C       -1.64060000       1.39900000      -2.51720000
C       -1.22860000       0.25530000      -1.58480000
C       -2.08870000      -1.01980000      -1.70390000
C       -1.96330000      -1.68240000      -3.08510000
C       -1.71520000      -2.00360000      -0.60620000
C       -2.23300000      -1.85740000       0.80770000
C       -2.64740000      -3.05060000      -0.02690000
C       -4.09190000      -3.14550000      -0.48310000
C       -2.03710000      -4.39530000       0.32610000
H       -1.03540000       2.29190000      -2.33100000
H       -1.51740000       1.13640000      -3.57250000
H       -2.69080000       1.67410000      -2.36500000
H       -0.17700000      -0.00680000      -1.76720000
H       -1.27670000       0.60530000      -0.54660000
H       -3.13550000      -0.71800000      -1.56340000
H       -2.58660000      -2.57940000      -3.14810000
H       -2.26720000      -1.00920000      -3.89200000
H       -0.92650000      -1.98530000      -3.27620000
H       -0.67790000      -2.33060000      -0.68000000
H       -1.54950000      -2.01050000       1.63700000
H       -2.97920000      -1.08860000       0.98890000
H       -4.70920000      -3.60210000       0.30000000
H       -4.52500000      -2.16830000      -0.71010000
H       -4.18840000      -3.77060000      -1.37920000
H       -2.60180000      -4.88730000       1.12750000
H       -2.03590000      -5.06960000      -0.53900000
H       -1.00230000      -4.28810000       0.66620000
