21
Properties=species:S:1:pos:R:3 gdb_116068=T pbc="F F F"
C       -0.03930000       1.56060000       0.04450000
C        0.09140000       0.03650000      -0.01210000
C        0.65210000      -0.57740000       1.26800000
C        0.68950000      -2.10050000       1.25530000
C        1.40370000      -2.60950000       2.50630000
C        2.82830000      -2.05160000       2.53060000
C        2.95390000      -0.57350000       2.18360000
O        3.92550000       0.07520000       2.46310000
O        1.96470000       0.00700000       1.46160000
H        0.93110000       2.02550000       0.23270000
H       -0.43260000       1.95270000      -0.89780000
H       -0.72140000       1.86880000       0.84480000
H       -0.88880000      -0.41960000      -0.19890000
H        0.74080000      -0.25630000      -0.84620000
H        0.03970000      -0.24760000       2.12120000
H       -0.33850000      -2.47420000       1.20430000
H        1.20800000      -2.45010000       0.35280000
H        0.85510000      -2.28110000       3.39820000
H        1.42560000      -3.70320000       2.53570000
H        3.32430000      -2.19580000       3.49300000
H        3.44430000      -2.57610000       1.78770000
