19
Properties=species:S:1:pos:R:3 gdb_64231=T pbc="F F F"
C       -0.08880000       1.57650000      -0.11820000
C       -0.02980000       0.05750000      -0.03600000
O       -1.30210000      -0.52820000      -0.19360000
C        1.14760000      -0.56230000      -0.85210000
N        1.93540000      -0.60890000       0.40320000
C        0.69900000      -0.53190000       1.20490000
C        0.79930000       0.27590000       2.50470000
C        1.59870000      -0.42330000       3.50850000
N        2.23420000      -0.99950000       4.28300000
H        0.90080000       2.01720000       0.02910000
H       -0.43990000       1.88450000      -1.11090000
H       -0.77760000       1.98660000       0.62710000
H       -1.76590000      -0.06970000      -0.90230000
H        0.85670000      -1.54300000      -1.25030000
H        1.59710000       0.04120000      -1.64810000
H        2.49460000      -1.44260000       0.54470000
H        0.24830000      -1.50990000       1.42380000
H        1.25930000       1.24890000       2.30870000
H       -0.20360000       0.45010000       2.91210000
