25
Properties=species:S:1:pos:R:3 gdb_60450=T pbc="F F F"
C        0.04080000       1.58250000       0.02320000
C        0.02750000       0.05360000       0.02970000
O        0.75740000      -0.46020000       1.14420000
C       -1.39420000      -0.52140000      -0.02540000
C       -1.42870000      -2.04920000      -0.12000000
C       -2.84400000      -2.63160000      -0.07700000
C       -2.88270000      -4.15340000      -0.27000000
C       -4.29300000      -4.72590000      -0.12430000
O       -2.29980000      -4.53840000      -1.51530000
H        1.06710000       1.95380000       0.08930000
H       -0.41610000       1.98080000      -0.88870000
H       -0.52240000       1.98030000       0.87740000
H        0.58570000      -0.31050000      -0.84260000
H        0.33090000      -0.13180000       1.94390000
H       -1.93990000      -0.18730000       0.87130000
H       -1.92260000      -0.08000000      -0.88140000
H       -0.94240000      -2.37380000      -1.04720000
H       -0.83170000      -2.46630000       0.69930000
H       -3.32370000      -2.38290000       0.87950000
H       -3.46670000      -2.16570000      -0.85720000
H       -2.23120000      -4.61770000       0.48170000
H       -4.97500000      -4.27110000      -0.85440000
H       -4.28380000      -5.80610000      -0.29370000
H       -4.70000000      -4.53290000       0.87370000
H       -2.86200000      -4.18980000      -2.21650000
