21
Properties=species:S:1:pos:R:3 gdb_52672=T pbc="F F F"
C       -0.29180000       1.53860000      -0.07230000
C       -0.14380000       0.08970000      -0.06720000
C       -0.01730000      -1.10830000      -0.05260000
C        0.12410000      -2.56480000      -0.04690000
C       -1.22590000      -3.27400000       0.18840000
C        0.81180000      -3.06450000      -1.32610000
C        0.10620000      -2.81690000      -2.64030000
C        2.26820000      -3.25080000      -1.30020000
O        1.38410000      -4.37180000      -1.17890000
H        0.51380000       2.02000000      -0.63780000
H       -1.24170000       1.84180000      -0.52660000
H       -0.26830000       1.94390000       0.94530000
H        0.78890000      -2.84780000       0.77950000
H       -1.08330000      -4.35800000       0.16310000
H       -1.63420000      -2.99600000       1.16320000
H       -1.96000000      -2.99570000      -0.57230000
H       -0.07030000      -1.74700000      -2.78350000
H        0.70870000      -3.19190000      -3.47090000
H       -0.86130000      -3.32780000      -2.66830000
H        2.83540000      -3.20370000      -2.22900000
H        2.83180000      -2.99980000      -0.40230000
