11
Properties=species:S:1:pos:R:3 gdb_133413=T pbc="F F F"
F        0.06400000       0.01470000       0.00270000
C       -0.03970000       1.33250000       0.01100000
C       -1.22610000       1.97360000       0.03020000
C       -1.26390000       3.43240000       0.03890000
O       -2.25660000       4.13280000       0.05470000
N        0.01850000       4.00100000       0.02410000
N        1.20510000       3.37480000       0.00500000
C        1.17760000       2.09280000      -0.00110000
F        2.32510000       1.43730000      -0.01990000
H       -2.16630000       1.43860000       0.03970000
H        0.06790000       5.01080000       0.02840000
