17
Properties=species:S:1:pos:R:3 gdb_73235=T pbc="F F F"
N        0.07540000       1.44520000      -0.02430000
C       -0.01570000       0.01300000      -0.03040000
C        0.17710000      -0.83460000      -1.31910000
O       -1.01600000      -1.59240000      -1.03160000
C       -1.37420000      -0.72840000       0.06750000
C       -1.39270000      -1.47740000       1.40440000
N        0.00200000      -1.42950000       1.81990000
C        0.79260000      -0.54600000       1.15030000
O        1.93310000      -0.23240000       1.42300000
H        1.01920000       1.71170000       0.24520000
H       -0.11660000       1.83740000      -0.93970000
H        0.07400000      -0.24080000      -2.23910000
H        1.07050000      -1.46460000      -1.39230000
H       -2.28880000      -0.16120000      -0.12860000
H       -2.04830000      -0.98490000       2.13440000
H       -1.73970000      -2.50520000       1.25630000
H        0.34390000      -1.87560000       2.65660000
