18
Properties=species:S:1:pos:R:3 gdb_118608=T pbc="F F F"
C        0.30790000       0.71950000      -0.62080000
N       -0.27620000       0.19370000       0.61390000
C        0.65420000      -0.47660000       1.50510000
C        0.69240000      -1.99130000       1.23390000
O        1.29410000      -2.20200000      -0.03990000
C        1.07410000      -3.40330000      -0.63390000
N        1.56330000      -3.62320000      -1.77180000
C        1.44430000      -2.70030000       2.28810000
N        2.02220000      -3.25130000       3.12300000
H        0.66900000      -0.10270000      -1.24080000
H       -0.46540000       1.25480000      -1.17860000
H        1.15180000       1.40940000      -0.44890000
H       -0.73470000       0.94330000       1.11550000
H        1.68560000      -0.09370000       1.43950000
H        0.32300000      -0.34940000       2.54040000
H       -0.34060000      -2.36120000       1.22940000
H        0.46220000      -4.08650000      -0.03140000
H        1.31250000      -4.55710000      -2.08910000
