19
Properties=species:S:1:pos:R:3 gdb_104534=T pbc="F F F"
O        0.40360000       1.27670000       0.30350000
C        0.23920000      -0.04530000      -0.14840000
C       -1.22550000      -0.49480000      -0.07160000
C       -2.14350000       0.11610000      -1.14240000
C       -2.26370000       1.56900000      -1.13050000
C       -2.42060000       2.75980000      -1.14870000
C       -1.41370000      -2.01610000       0.14890000
C       -1.80410000      -1.61970000       1.58580000
O       -1.71790000      -0.21050000       1.27130000
H       -0.13090000       1.34710000       1.10550000
H        0.60200000      -0.09060000      -1.18200000
H        0.84710000      -0.74840000       0.44630000
H       -1.78380000      -0.22160000      -2.12430000
H       -3.14170000      -0.31980000      -1.01200000
H       -2.52890000       3.81580000      -1.15310000
H       -2.22030000      -2.46070000      -0.43660000
H       -0.51370000      -2.62390000       0.04150000
H       -2.81190000      -1.89860000       1.91130000
H       -1.08730000      -1.90930000       2.36310000
