19
Properties=species:S:1:pos:R:3 gdb_55017=T pbc="F F F"
C       -0.54390000       1.42840000      -0.15260000
C        0.00920000       0.03140000       0.05610000
O        0.33360000      -0.36910000       1.15590000
C        0.13550000      -0.80920000      -1.17340000
C        1.19160000      -1.90030000      -1.20010000
C       -0.24590000      -2.29760000      -1.14930000
C       -0.83140000      -2.94930000       0.06010000
C       -2.20870000      -3.45900000       0.05600000
O       -1.10220000      -4.35100000      -0.08300000
H        0.09810000       1.98990000      -0.84130000
H       -1.53610000       1.37800000      -0.61580000
H       -0.60640000       1.95170000       0.80190000
H       -0.07470000      -0.29760000      -2.10660000
H        1.74700000      -2.04350000      -2.11960000
H        1.76360000      -2.00270000      -0.28400000
H       -0.68470000      -2.65430000      -2.07690000
H       -0.38760000      -2.66640000       1.01050000
H       -2.76080000      -3.53510000       0.99180000
H       -2.82480000      -3.33780000      -0.83510000
