21
Properties=species:S:1:pos:R:3 gdb_67888=T pbc="F F F"
C       -0.00130000       1.44480000       0.06620000
C        0.00930000      -0.07260000       0.01300000
C        1.10540000      -0.66420000      -0.80600000
C        0.98440000      -1.81740000      -1.46580000
C       -0.26030000      -2.66640000      -1.37720000
C       -1.11420000      -2.26290000      -0.17360000
C       -0.37020000      -2.27230000       1.20960000
C       -0.51560000      -0.75330000       1.28030000
C       -1.33660000      -0.74310000      -0.00510000
H        0.92840000       1.83070000       0.50060000
H       -0.10290000       1.87410000      -0.93680000
H       -0.83240000       1.81520000       0.67460000
H        2.02940000      -0.09330000      -0.87130000
H        1.80490000      -2.18460000      -2.07680000
H       -0.84160000      -2.59360000      -2.30910000
H        0.02180000      -3.72450000      -1.28860000
H       -2.04440000      -2.83460000      -0.14330000
H       -0.95380000      -2.77890000       1.98220000
H        0.64850000      -2.67300000       1.21350000
H       -0.66410000      -0.17230000       2.18400000
H       -2.24580000      -0.20220000      -0.24200000
