16
Properties=species:S:1:pos:R:3 gdb_26541=T pbc="F F F"
C        0.03400000       1.54910000       0.02560000
C       -0.02880000       0.05260000       0.01420000
C       -1.17390000      -0.67620000      -0.08440000
O       -2.39490000      -0.11890000      -0.18380000
C       -1.18470000      -2.14200000      -0.09150000
O       -2.28540000      -2.70920000      -0.18570000
C        0.10770000      -2.76380000       0.01360000
C        1.23070000      -1.99760000       0.11050000
N        1.16510000      -0.64200000       0.11080000
H        0.62820000       1.93410000      -0.81240000
H       -0.97360000       1.95690000      -0.05580000
H        0.48250000       1.92670000       0.95290000
H       -2.97550000      -0.91170000      -0.23540000
H        0.17750000      -3.84380000       0.01490000
H        2.22570000      -2.41800000       0.19170000
H        2.01650000      -0.10960000       0.18400000
