18
Properties=species:S:1:pos:R:3 gdb_7805=T pbc="F F F"
C       -0.02260000       1.47050000       0.02150000
N       -0.02930000       0.01790000      -0.00190000
C       -1.36030000      -0.54050000      -0.17520000
C       -1.24210000      -2.03150000      -0.46760000
N       -0.42100000      -2.67260000       0.54700000
C        0.55460000      -2.06120000       1.27870000
O        1.30420000      -2.67450000       2.01500000
C        0.61110000      -0.53860000       1.18310000
H        1.00740000       1.83190000       0.10190000
H       -0.44820000       1.85930000      -0.90880000
H       -0.59710000       1.89420000       0.86760000
H       -2.00050000      -0.38090000       0.71580000
H       -1.84840000      -0.04840000      -1.02210000
H       -2.23660000      -2.49120000      -0.46780000
H       -0.80670000      -2.16810000      -1.46730000
H       -0.40420000      -3.68120000       0.59690000
H        1.66770000      -0.25860000       1.20300000
H        0.16170000      -0.15230000       2.12120000
