19
Properties=species:S:1:pos:R:3 gdb_88605=T pbc="F F F"
C       -0.56370000       1.19650000       0.46120000
C        0.05080000      -0.15130000       0.19370000
O        1.39860000      -0.17880000      -0.29160000
C        1.13810000      -0.72850000       1.00590000
C        1.76590000      -0.00580000       2.16500000
C        0.96200000       0.33300000       3.41520000
O       -0.36950000      -0.06600000       3.51620000
C        2.02280000      -0.73630000       3.46430000
O        1.53980000      -2.05760000       3.50530000
H        0.15320000       1.86620000       0.94080000
H       -0.89460000       1.65880000      -0.47460000
H       -1.42800000       1.08930000       1.12300000
H       -0.60520000      -0.86110000      -0.31580000
H        1.21210000      -1.81480000       1.04360000
H        2.52650000       0.71080000       1.87140000
H        1.13060000       1.28850000       3.90130000
H       -0.36670000      -1.03180000       3.45820000
H        2.96350000      -0.57440000       3.98630000
H        1.45970000      -2.31400000       4.43090000
