17
Properties=species:S:1:pos:R:3 gdb_33837=T pbc="F F F"
N        0.09650000      -1.14120000      -0.07770000
C        0.05980000       0.01490000      -0.02490000
C        0.00620000       1.43610000       0.05550000
C        0.28390000       2.32990000      -1.13140000
C        1.19010000       2.43830000       0.06010000
C        0.50310000       3.20500000       1.16920000
C        1.15350000       3.86220000       2.31840000
N        0.40640000       4.65200000       1.31450000
C       -0.69630000       2.23590000       1.17410000
H        0.70810000       1.83030000      -1.99520000
H       -0.42150000       3.12350000      -1.36180000
H        2.24690000       2.20680000       0.00120000
H        0.69320000       3.82120000       3.30200000
H        2.23950000       3.91970000       2.32810000
H        1.05080000       5.11870000       0.67990000
H       -1.66780000       2.66010000       0.90790000
H       -0.78330000       1.67370000       2.10560000
