21
Properties=species:S:1:pos:R:3 gdb_39146=T pbc="F F F"
C       -0.11220000       1.60810000       0.05520000
C        1.47540000       1.72020000       0.02710000
C        2.27370000       2.31760000       1.22000000
C        2.43090000       1.14210000       2.26140000
C        1.65780000       0.00110000       1.62610000
C        1.39400000       0.25690000       0.34260000
C       -0.04610000       0.01850000       0.00070000
C       -0.56900000      -0.86170000       1.17070000
C        0.60050000      -0.90510000       2.22960000
H       -0.52220000       1.95990000       1.00680000
H       -0.63710000       2.09020000      -0.77540000
H        1.83820000       2.04800000      -0.95080000
H        3.25150000       2.67320000       0.88070000
H        1.76740000       3.18250000       1.66270000
H        3.48680000       0.91790000       2.45630000
H        1.99490000       1.39790000       3.23470000
H       -0.31620000      -0.36160000      -0.98820000
H       -1.49160000      -0.46240000       1.60630000
H       -0.80820000      -1.86700000       0.81040000
H        0.93810000      -1.93270000       2.41200000
H        0.28280000      -0.51710000       3.20500000
