19
Properties=species:S:1:pos:R:3 gdb_76634=T pbc="F F F"
O        0.28840000       1.20580000      -0.19360000
C        0.01980000      -0.15090000      -0.03560000
C       -0.51980000      -0.62440000       1.28860000
O       -0.88590000       0.40530000       2.18380000
C       -1.39830000      -0.71040000       0.05890000
C       -2.66280000       0.10660000      -0.00790000
O       -3.51350000      -0.07520000       1.09680000
C       -2.72740000       1.45090000      -0.70390000
C       -3.39770000       0.23470000      -1.30740000
H       -0.19940000       1.66420000       0.50370000
H        0.75870000      -0.75100000      -0.55640000
H       -0.16400000      -1.53520000       1.76440000
H       -0.12470000       0.61150000       2.73740000
H       -1.50580000      -1.72230000      -0.32510000
H       -3.02300000       0.23450000       1.86860000
H       -3.37130000       2.19130000      -0.24230000
H       -1.83760000       1.83500000      -1.18530000
H       -2.95580000      -0.20520000      -2.19490000
H       -4.47810000       0.17150000      -1.25050000
