14
Properties=species:S:1:pos:R:3 gdb_75737=T pbc="F F F"
N        0.08070000       1.34100000       0.16330000
C       -0.07430000       0.01460000       0.05180000
C       -1.17380000      -0.79550000       0.06410000
C       -0.76820000      -2.17940000      -0.12910000
O       -1.44510000      -3.15360000      -0.39390000
C        0.76610000      -2.26430000      -0.00910000
O        1.33990000      -3.13380000      -0.93990000
C        1.17340000      -0.80530000      -0.16060000
O        2.25170000      -0.32260000      -0.40040000
H        1.00300000       1.70600000      -0.02520000
H       -0.69830000       1.97570000       0.17520000
H       -2.20830000      -0.48700000       0.14370000
H        1.00520000      -2.56010000       1.03010000
H        0.65090000      -3.78820000      -1.12980000
