19
Properties=species:S:1:pos:R:3 gdb_65731=T pbc="F F F"
O        0.07170000       1.43480000      -0.12800000
C       -0.01070000       0.02910000       0.00720000
C        0.91360000      -0.54740000      -1.07610000
C        2.34220000      -0.09180000      -0.86390000
O        3.19900000      -0.78560000      -0.37420000
C        0.25140000      -0.60520000       1.42640000
C       -1.11390000      -1.29570000       1.33540000
C       -2.18720000      -0.25640000       1.22630000
C       -1.40090000      -0.61680000      -0.00820000
H       -0.58810000       1.83240000       0.44920000
H        0.88230000      -1.63900000      -1.04600000
H        0.55680000      -0.19450000      -2.05100000
H        2.55470000       0.95430000      -1.16810000
H        1.11230000      -1.27590000       1.43170000
H        0.36180000       0.11440000       2.24430000
H       -1.32390000      -2.31670000       1.62610000
H       -3.21050000      -0.61750000       1.22860000
H       -2.06810000       0.70640000       1.72240000
H       -1.88940000      -1.01140000      -0.89210000
