20
Properties=species:S:1:pos:R:3 gdb_112665=T pbc="F F F"
C       -0.29740000       1.39470000      -0.20290000
C       -0.18760000      -0.12780000      -0.30790000
C        1.02120000      -0.59280000      -1.11900000
C        1.09820000      -2.11800000      -1.32960000
C        0.39340000      -2.33060000      -2.66710000
O       -0.99010000      -2.58260000      -2.44300000
C        0.56050000      -0.98460000      -3.35690000
N        0.30330000      -0.78840000      -4.57910000
O        0.95830000      -0.04360000      -2.46440000
H        0.58430000       1.82350000       0.28690000
H       -0.38140000       1.84820000      -1.19400000
H       -1.17660000       1.68390000       0.38010000
H       -0.10050000      -0.56870000       0.69350000
H       -1.08920000      -0.55500000      -0.76050000
H        1.94110000      -0.19250000      -0.68070000
H        2.14060000      -2.43920000      -1.40600000
H        0.61780000      -2.68210000      -0.52850000
H        0.84150000      -3.12980000      -3.26820000
H       -1.43340000      -2.44560000      -3.28940000
H        0.40810000       0.19830000      -4.82210000
