21
Properties=species:S:1:pos:R:3 gdb_95782=T pbc="F F F"
C       -0.02650000       1.58810000      -0.03830000
C        0.10510000       0.06700000       0.00550000
C        0.75270000      -0.53120000      -1.26120000
C        0.97920000      -2.03150000      -1.09850000
O        1.78710000      -2.30530000       0.03230000
C        1.18120000      -1.92260000       1.26500000
C        2.11720000      -2.31120000       2.39450000
C        0.85310000      -0.41720000       1.24830000
O        1.15010000       0.31450000       2.16350000
H        0.95700000       2.06010000      -0.12490000
H       -0.63130000       1.89620000      -0.89670000
H       -0.49120000       1.96810000       0.87380000
H       -0.89920000      -0.38050000       0.09260000
H        0.12130000      -0.33310000      -2.13550000
H        1.71910000      -0.04440000      -1.44050000
H        0.01190000      -2.55750000      -1.01210000
H        1.51080000      -2.44740000      -1.95930000
H        0.21710000      -2.45740000       1.37270000
H        3.07100000      -1.78790000       2.29250000
H        1.68150000      -2.03810000       3.35740000
H        2.29990000      -3.38810000       2.37090000
