19
Properties=species:S:1:pos:R:3 gdb_103133=T pbc="F F F"
C       -0.13820000       1.56890000      -0.05070000
C       -0.09040000       0.03720000      -0.08450000
C       -1.48030000      -0.57710000       0.15090000
O       -1.97080000      -0.25650000       1.43590000
C        0.76560000      -0.55520000      -1.25620000
O        0.99880000       0.36150000      -2.29550000
C        1.94200000      -0.84930000      -0.26550000
C        0.95240000      -0.56600000       0.86530000
O        0.90500000      -0.85450000       2.03320000
H        0.85910000       2.01580000      -0.05840000
H       -0.67380000       1.94070000      -0.92860000
H       -0.66620000       1.88860000       0.85000000
H       -2.19810000      -0.17820000      -0.57530000
H       -1.43100000      -1.66840000       0.00020000
H       -1.29860000      -0.54320000       2.06990000
H        0.32390000      -1.48750000      -1.63480000
H        1.53280000      -0.07010000      -2.96970000
H        2.42590000      -1.82870000      -0.27440000
H        2.70410000      -0.06500000      -0.33190000
