22
Properties=species:S:1:pos:R:3 gdb_106112=T pbc="F F F"
C        0.10510000       1.53070000       0.21410000
C       -0.08630000       0.02880000      -0.03690000
C        0.61990000      -0.46090000      -1.25980000
C        1.02880000      -1.83600000      -1.76700000
C        0.33600000      -1.59480000      -3.10450000
C        0.53500000      -0.07780000      -2.80010000
N        2.00070000       0.18970000      -2.76850000
C        2.81530000      -0.12750000      -3.93320000
C        2.05790000      -0.67890000      -1.60000000
H        1.16480000       1.77580000       0.33310000
H       -0.27770000       2.12170000      -0.62410000
H       -0.42380000       1.84800000       1.11820000
H        0.28050000      -0.54100000       0.82700000
H       -1.15860000      -0.19830000      -0.11220000
H        1.10080000      -2.75480000      -1.19740000
H        0.76000000      -2.00510000      -4.02720000
H       -0.72490000      -1.85370000      -3.04730000
H       -0.08920000       0.68260000      -3.26940000
H        2.50920000       0.51020000      -4.76970000
H        3.86150000       0.10310000      -3.70430000
H        2.76800000      -1.17760000      -4.26170000
H        2.92490000      -0.75190000      -0.95310000
