18
Properties=species:S:1:pos:R:3 gdb_63221=T pbc="F F F"
C       -0.17500000       1.60090000      -0.02690000
C        0.00470000       0.08370000      -0.00590000
C       -1.34660000      -0.63210000      -0.15400000
N        0.88140000      -0.34030000      -1.11920000
C        1.73480000      -1.15330000      -0.64220000
N        1.64340000      -1.46160000       0.71200000
C        0.73960000      -0.46440000       1.29730000
C        1.48030000       0.54610000       2.06600000
N        2.08230000       1.31440000       2.68570000
H        0.78690000       2.11490000       0.03270000
H       -0.65990000       1.89170000      -0.96220000
H       -0.79930000       1.93770000       0.80690000
H       -1.78600000      -0.38960000      -1.12460000
H       -1.22210000      -1.71780000      -0.09900000
H       -2.04180000      -0.31910000       0.63220000
H        2.49260000      -1.65470000      -1.23770000
H        2.48670000      -1.69430000       1.21740000
H        0.01920000      -0.93440000       1.97360000
