21
Properties=species:S:1:pos:R:3 gdb_118738=T pbc="F F F"
C       -0.03150000       1.62760000      -0.08540000
C       -0.04580000       0.09850000      -0.00680000
C        0.92060000      -0.44160000       1.05510000
C        0.85060000      -1.94950000       1.27720000
C        1.17170000      -2.79510000       0.05690000
C        1.46650000      -2.44370000       2.60800000
C        0.02050000      -2.75440000       2.98620000
O       -0.57000000      -3.20350000       3.91600000
O       -0.49800000      -2.31790000       1.79840000
H        0.96580000       2.00480000      -0.33830000
H       -0.72730000       1.99080000      -0.84760000
H       -0.32170000       2.07610000       0.87110000
H       -1.05680000      -0.25300000       0.22850000
H        0.20810000      -0.31620000      -0.98930000
H        1.95510000      -0.18220000       0.79170000
H        0.71130000       0.05200000       2.01260000
H        2.18320000      -2.57600000      -0.30070000
H        1.11430000      -3.85960000       0.30050000
H        0.46980000      -2.59720000      -0.75670000
H        2.11000000      -3.32290000       2.54310000
H        1.94250000      -1.68510000       3.23190000
