14
Properties=species:S:1:pos:R:3 gdb_26813=T pbc="F F F"
O        0.05500000       1.31010000       0.18860000
C        0.04660000      -0.02870000       0.01390000
C        0.02630000      -0.78900000      -1.13820000
O       -0.03760000      -0.21280000      -2.38790000
C        0.01250000      -2.14970000      -0.74900000
C        0.03180000      -2.18680000       0.63840000
N        0.04180000      -0.86600000       1.08270000
C        0.03620000      -3.26580000       1.53550000
C        0.04060000      -4.18190000       2.32140000
H        0.04870000       1.70270000      -0.69330000
H        0.64010000      -0.60480000      -2.94810000
H       -0.01040000      -3.01310000      -1.39500000
H        0.05000000      -0.57780000       2.04580000
H        0.04230000      -4.99500000       3.00340000
