17
Properties=species:S:1:pos:R:3 gdb_19405=T pbc="F F F"
C       -0.20980000       1.58690000      -0.07180000
C        0.07010000       0.09920000       0.02940000
N        0.98470000      -0.51730000      -1.01650000
C        2.34900000      -0.02050000      -0.75920000
C        1.82920000      -1.09980000       0.10620000
C        0.92790000      -0.49810000       1.15640000
C        1.18570000      -0.10880000       2.54400000
O        0.36180000      -1.24090000       2.21490000
H        0.69650000       2.19320000       0.01240000
H       -0.68600000       1.81700000      -1.03030000
H       -0.89340000       1.89650000       0.72580000
H       -0.86930000      -0.46090000      -0.01600000
H        3.04650000      -0.29170000      -1.54570000
H        2.50180000       0.97350000      -0.34670000
H        2.18890000      -2.12280000       0.09300000
H        2.14340000      -0.34640000       3.00550000
H        0.65640000       0.73790000       2.97930000
