24
Properties=species:S:1:pos:R:3 gdb_8237=T pbc="F F F"
C       -0.19150000       1.50320000      -0.12970000
C        0.05850000      -0.00750000      -0.01750000
C        0.80300000      -0.52270000      -1.25690000
C        0.82340000      -0.38370000       1.26650000
C        0.07570000      -0.12740000       2.56900000
C       -1.19600000      -0.96620000       2.89560000
C       -0.73210000      -1.02470000       4.37550000
C        0.69540000      -0.64160000       3.90080000
H        0.75680000       2.05410000      -0.15610000
H       -0.73770000       1.74260000      -1.04830000
H       -0.77670000       1.88820000       0.71050000
H       -0.91930000      -0.50960000       0.01810000
H        1.79610000      -0.06350000      -1.33540000
H        0.94280000      -1.60820000      -1.21680000
H        0.25650000      -0.28780000      -2.17660000
H        1.08070000      -1.45140000       1.22140000
H        1.78120000       0.15800000       1.28310000
H       -0.15620000       0.93870000       2.67190000
H       -2.17380000      -0.52700000       2.68170000
H       -1.14900000      -1.95260000       2.42080000
H       -1.18670000      -0.22950000       4.97360000
H       -0.85420000      -1.96990000       4.90980000
H        1.31420000      -1.52940000       3.73050000
H        1.26700000       0.06650000       4.50660000
