19
Properties=species:S:1:pos:R:3 gdb_64665=T pbc="F F F"
O       -0.24900000       1.40480000      -0.14190000
C       -0.08850000       0.01810000      -0.03890000
C        1.06000000      -0.51830000      -0.89270000
C        2.33430000       0.08740000      -0.51360000
C        3.35150000       0.63340000      -0.17670000
C       -0.35500000      -0.71370000       1.24850000
C       -1.45170000      -0.00250000       2.04940000
C       -2.41690000      -0.12610000       0.82720000
C       -1.31100000      -0.83170000       0.03170000
H        0.57210000       1.81040000       0.16410000
H        1.11890000      -1.60880000      -0.79780000
H        0.85120000      -0.29850000      -1.94710000
H        4.26660000       1.09030000       0.10910000
H        0.34930000      -1.43670000       1.64580000
H       -1.79230000      -0.58400000       2.90830000
H       -1.21240000       1.01220000       2.37840000
H       -3.26210000      -0.78530000       1.03530000
H       -2.78600000       0.80730000       0.39700000
H       -1.46220000      -1.66190000      -0.65050000
