19
Properties=species:S:1:pos:R:3 gdb_3068=T pbc="F F F"
C       -0.19250000       1.52520000      -0.11000000
C        0.04410000       0.01710000       0.00600000
C        0.74630000      -0.57620000      -1.21930000
C        0.98670000      -2.08790000      -1.11070000
C        1.66580000      -2.65350000      -2.33330000
C        1.36260000      -3.98690000      -2.86610000
O        0.85190000      -2.81340000      -3.50100000
H        0.75310000       2.06640000      -0.22640000
H       -0.81630000       1.76170000      -0.97910000
H       -0.69500000       1.92100000       0.77820000
H        0.64070000      -0.19310000       0.90400000
H       -0.91600000      -0.49460000       0.15490000
H        0.14990000      -0.37890000      -2.11910000
H        1.70740000      -0.06510000      -1.37100000
H        1.60620000      -2.30490000      -0.22940000
H        0.03160000      -2.60730000      -0.96470000
H        2.65470000      -2.24160000      -2.54830000
H        2.11740000      -4.53440000      -3.42950000
H        0.62020000      -4.60730000      -2.36480000
