18
Properties=species:S:1:pos:R:3 gdb_29338=T pbc="F F F"
C       -0.03760000       1.51990000       0.01880000
C       -0.00770000       0.02430000       0.00310000
C       -0.00430000      -0.79820000      -1.09260000
N        0.02760000      -2.10570000      -0.65390000
C        0.04480000      -2.15110000       0.71200000
C        0.07960000      -3.42810000       1.48000000
C        0.02360000      -0.83570000       1.15920000
C        0.03170000      -0.42140000       2.51020000
C        0.03810000      -0.05050000       3.65810000
H        0.83980000       1.93420000       0.52850000
H       -0.05830000       1.92430000      -0.99720000
H       -0.91790000       1.89890000       0.55030000
H       -0.02160000      -0.56430000      -2.14520000
H        0.03580000      -2.91420000      -1.25110000
H        0.97260000      -4.02310000       1.25150000
H        0.08970000      -3.20530000       2.54890000
H       -0.79570000      -4.05720000       1.27530000
H        0.04380000       0.27460000       4.66820000
