17
Properties=species:S:1:pos:R:3 gdb_27164=T pbc="F F F"
N       -0.02790000       1.35730000      -0.20540000
C       -0.04960000      -0.03120000      -0.08520000
C       -1.13440000      -0.87770000       0.04010000
N       -0.55740000      -2.13320000       0.24670000
C        0.78550000      -1.97930000       0.20940000
N        1.13090000      -0.72410000       0.00970000
C       -2.59080000      -0.66870000       0.04390000
C       -3.22800000       0.19240000      -0.98890000
N       -3.44290000      -1.26000000      -1.02630000
H        0.81780000       1.67740000      -0.65800000
H       -0.85160000       1.74770000      -0.64060000
H       -1.06330000      -2.99360000       0.37450000
H        1.46930000      -2.80670000       0.32650000
H       -3.08870000      -0.71310000       1.01230000
H       -4.10300000       0.78100000      -0.72980000
H       -2.58950000       0.63590000      -1.74850000
H       -2.83280000      -1.65630000      -1.73870000
