17
Properties=species:S:1:pos:R:3 gdb_3593=T pbc="F F F"
C        0.24670000       1.55710000      -0.06670000
C        0.08320000       0.05550000       0.03400000
C        1.28250000      -0.86180000      -0.00210000
C        0.48540000      -0.72160000       1.27100000
C        1.07930000      -0.05450000       2.47290000
C        2.35810000      -0.48950000       3.05490000
O        2.27030000       0.71700000       2.29340000
H        1.15500000       1.89470000       0.43750000
H        0.30650000       1.86880000      -1.11540000
H       -0.60400000       2.08080000       0.38430000
H       -0.80540000      -0.32670000      -0.46330000
H        1.22210000      -1.79250000      -0.55520000
H        2.25810000      -0.38720000      -0.00960000
H       -0.16410000      -1.55230000       1.53820000
H        0.36100000       0.41260000       3.14980000
H        2.54830000      -0.35440000       4.11850000
H        2.90720000      -1.29940000       2.57740000
