17
Properties=species:S:1:pos:R:3 gdb_52825=T pbc="F F F"
C        0.00410000       1.49930000      -0.06450000
C        0.03620000       0.04470000      -0.03450000
C        0.05570000      -1.15910000      -0.01270000
C        0.07410000      -2.61010000       0.00640000
C        1.07180000      -3.20540000      -0.99860000
C        0.06760000      -3.27060000       1.41420000
O       -1.24590000      -3.85600000       1.15330000
C       -1.32830000      -3.27600000      -0.08360000
O       -2.21050000      -3.35100000      -0.87270000
H        0.75030000       1.89900000      -0.75970000
H       -0.97810000       1.86440000      -0.38330000
H        0.21070000       1.92110000       0.92510000
H        2.08280000      -2.84860000      -0.78450000
H        1.06530000      -4.29870000      -0.95260000
H        0.80450000      -2.89980000      -2.01270000
H        0.81440000      -4.05070000       1.57640000
H        0.02530000      -2.58130000       2.25790000
