17
Properties=species:S:1:pos:R:3 gdb_98875=T pbc="F F F"
C       -0.12820000       1.39130000       0.01830000
O       -0.08080000      -0.03720000       0.13470000
C       -1.27240000      -0.66340000       0.04000000
O       -2.32510000      -0.10740000      -0.11290000
C       -1.05970000      -2.18330000       0.11390000
O       -2.27210000      -2.84890000       0.39480000
C       -2.72240000      -3.55900000      -0.75920000
C       -1.57620000      -3.48460000      -1.72870000
C       -0.61640000      -2.71420000      -1.23160000
H        0.90350000       1.73210000       0.10500000
H       -0.54960000       1.68550000      -0.94630000
H       -0.74130000       1.82110000       0.81430000
H       -0.33120000      -2.38380000       0.91150000
H       -2.97310000      -4.58860000      -0.46780000
H       -3.63570000      -3.09600000      -1.16290000
H       -1.57350000      -3.99010000      -2.68580000
H        0.32720000      -2.44620000      -1.68620000
