20
Properties=species:S:1:pos:R:3 gdb_88235=T pbc="F F F"
C       -1.01210000       0.27640000       0.45590000
N        0.23320000      -0.33210000       0.00680000
C        1.26790000       0.56520000      -0.47040000
C        1.43850000      -0.14520000       0.84240000
C        1.40950000       0.59410000       2.07410000
C        1.39570000       1.17300000       3.13390000
C        1.38150000       1.86390000       4.38940000
C        2.53310000       2.78340000       4.77050000
C        1.19780000       3.37400000       4.43270000
H       -0.87850000       1.24840000       0.95290000
H       -1.66260000       0.41160000      -0.41380000
H       -1.51040000      -0.40030000       1.15660000
H        1.83060000       0.23460000      -1.33980000
H        1.08460000       1.63740000      -0.41740000
H        2.07560000      -1.02720000       0.85640000
H        0.93150000       1.31450000       5.21160000
H        2.85050000       2.77410000       5.80710000
H        3.33540000       2.88950000       4.05030000
H        1.09050000       3.88320000       3.48250000
H        0.58840000       3.77520000       5.23460000
