21
Properties=species:S:1:pos:R:3 gdb_82868=T pbc="F F F"
C        0.23150000       1.58630000      -0.14770000
C        0.08260000       0.08710000      -0.09350000
C        0.33390000      -0.82090000      -1.31130000
C       -0.40680000      -1.88820000      -0.47060000
C        0.62680000      -2.13550000       0.65600000
C        0.53550000      -0.70700000       1.22660000
C       -0.93870000      -0.69610000       1.70030000
O       -1.27270000       0.51780000       2.34760000
C       -1.24390000      -0.71270000       0.19340000
H        1.28520000       1.86470000      -0.27650000
H       -0.32260000       2.00580000      -0.99580000
H       -0.13520000       2.05210000       0.76900000
H       -0.25310000      -0.47370000      -2.16820000
H        1.35880000      -1.03980000      -1.63260000
H       -0.88720000      -2.75180000      -0.92960000
H        0.33270000      -2.89750000       1.38410000
H        1.61130000      -2.39950000       0.25980000
H        1.32860000      -0.33920000       1.87730000
H       -1.26010000      -1.55720000       2.30570000
H       -2.22970000       0.61730000       2.31530000
H       -2.21420000      -0.45710000      -0.23620000
