16
Properties=species:S:1:pos:R:3 gdb_72356=T pbc="F F F"
C       -0.06610000       1.50070000      -0.03870000
C       -0.00220000       0.00890000       0.08920000
O       -1.25640000      -0.63500000      -0.14520000
C       -1.27370000      -1.70860000       0.68600000
N       -0.26980000      -1.91340000       1.44020000
C        0.65970000      -0.85000000       1.13370000
C        1.23620000      -0.79920000      -0.29570000
C        1.23220000      -1.95170000      -1.22700000
O        2.07400000      -2.10640000      -2.08040000
H        0.89600000       1.94220000       0.23240000
H       -0.29950000       1.79620000      -1.06620000
H       -0.83590000       1.90880000       0.62320000
H       -2.16780000      -2.31690000       0.62950000
H        1.28150000      -0.49240000       1.94540000
H        2.12680000      -0.18650000      -0.39100000
H        0.41110000      -2.68410000      -1.09860000
