21
Properties=species:S:1:pos:R:3 gdb_26165=T pbc="F F F"
C        0.02520000       1.47300000      -0.03430000
N       -0.01220000       0.01850000       0.06230000
C        0.83260000      -0.47930000       1.14160000
C       -1.33220000      -0.51820000       0.07760000
C       -1.84300000      -1.32900000      -0.91790000
C       -1.20270000      -1.81890000      -2.17120000
N       -3.13110000      -1.64380000      -0.55630000
C       -3.45080000      -1.05350000       0.64360000
C       -2.35490000      -0.34540000       1.06690000
H        1.05730000       1.80280000      -0.19950000
H       -0.58180000       1.79930000      -0.88260000
H       -0.35020000       1.98410000       0.87140000
H        0.52230000      -0.12560000       2.14220000
H        0.81240000      -1.57200000       1.14810000
H        1.86610000      -0.15270000       0.97830000
H       -1.14490000      -2.91410000      -2.21160000
H       -1.73520000      -1.48640000      -3.07140000
H       -0.18570000      -1.42270000      -2.21140000
H       -3.74930000      -2.22440000      -1.09520000
H       -4.42460000      -1.18960000       1.08620000
H       -2.28700000       0.23080000       1.97690000
