14
Properties=species:S:1:pos:R:3 gdb_5560=T pbc="F F F"
O        0.16570000       1.34050000       0.39070000
C       -0.00830000       0.15090000      -0.38410000
C       -1.33120000      -0.49060000      -0.16560000
C       -1.72350000      -1.76250000       0.18030000
O       -0.91040000      -2.81820000       0.41040000
N       -3.08040000      -1.87400000       0.26730000
C       -3.53920000      -0.66880000      -0.01770000
N       -2.53560000       0.19480000      -0.29430000
H        0.06790000       1.09000000       1.31600000
H        0.11680000       0.48270000      -1.42220000
H        0.77490000      -0.59270000      -0.18470000
H       -1.48740000      -3.55860000       0.63340000
H       -4.57900000      -0.38020000      -0.03140000
H       -2.61490000       1.18110000      -0.47900000
