15
Properties=species:S:1:pos:R:3 gdb_12757=T pbc="F F F"
O        0.05540000       1.42430000       0.02600000
C       -0.01840000       0.04880000       0.00980000
C       -0.39420000      -0.76700000      -1.19930000
C       -1.20960000      -0.87810000       0.06520000
N       -0.51710000      -1.82490000       0.96960000
C        0.63840000      -0.84670000       1.08560000
C        1.96540000      -1.38720000       0.84490000
C        3.07160000      -1.80560000       0.62790000
H        0.73290000       1.70030000      -0.60210000
H       -0.86080000      -0.17800000      -1.98310000
H        0.20940000      -1.60820000      -1.52890000
H       -2.27460000      -0.69240000       0.11770000
H       -0.99310000      -1.87850000       1.86560000
H        0.61230000      -0.31510000       2.04330000
H        4.04490000      -2.18720000       0.44130000
