21
Properties=species:S:1:pos:R:3 gdb_113758=T pbc="F F F"
C        0.47520000       1.61140000       0.18590000
C       -0.10710000       0.21650000      -0.07140000
C        0.50540000      -0.44600000      -1.28900000
C        1.77170000      -1.26090000      -1.19030000
C        0.46130000      -1.93620000      -1.53550000
C       -0.20490000      -2.89180000      -0.56130000
O       -1.59780000      -2.91060000      -0.72320000
C        0.36110000      -4.28820000      -0.74310000
O       -0.34680000      -5.23710000      -0.98230000
H        1.55620000       1.56330000       0.35460000
H        0.30340000       2.27450000      -0.66920000
H        0.01620000       2.07570000       1.06410000
H        0.04960000      -0.40680000       0.81640000
H       -1.19340000       0.28550000      -0.20610000
H        0.40880000       0.14840000      -2.19510000
H        2.52980000      -1.17350000      -1.96030000
H        2.17310000      -1.42850000      -0.19440000
H        0.32550000      -2.23400000      -2.57210000
H        0.06250000      -2.59120000       0.46830000
H       -1.83050000      -3.84080000      -0.87290000
H        1.46110000      -4.38630000      -0.65020000
