15
Properties=species:S:1:pos:R:3 gdb_75856=T pbc="F F F"
N        0.15920000       1.44070000      -0.16700000
C       -0.00490000       0.00410000      -0.00500000
C        0.59690000      -0.49310000       1.33510000
O        1.67060000      -0.24160000       1.81750000
N       -0.37340000      -1.31570000       1.89550000
C       -1.54770000      -1.31860000       1.14600000
C       -1.42480000      -0.57540000       0.02890000
C       -2.38010000      -0.34280000      -0.97440000
C       -3.14980000      -0.09220000      -1.86960000
H       -0.24140000       1.72110000      -1.05780000
H       -0.36710000       1.93280000       0.54990000
H        0.56580000      -0.48630000      -0.80560000
H       -0.26180000      -1.73520000       2.80390000
H       -2.40420000      -1.88050000       1.49040000
H       -3.84140000       0.10910000      -2.64950000
