21
Properties=species:S:1:pos:R:3 gdb_40432=T pbc="F F F"
C       -0.35920000       1.19030000      -0.32560000
C        1.00560000       1.26910000       0.30960000
C        0.35100000      -0.07410000       0.07920000
C       -0.12370000      -0.87280000       1.24790000
C        0.79580000      -1.89150000       1.90880000
C       -0.11820000      -2.65170000       2.89830000
C       -1.54080000      -2.57270000       2.29030000
C       -1.51540000      -1.28900000       1.48740000
O       -0.94550000      -0.17820000       2.20600000
H       -1.20110000       1.49500000       0.28460000
H       -0.45310000       1.40660000      -1.38380000
H        1.85480000       1.53960000      -0.30790000
H        1.05440000       1.62760000       1.33180000
H        0.76940000      -0.68040000      -0.72000000
H        1.19040000      -2.55990000       1.13270000
H        1.65370000      -1.42240000       2.40050000
H        0.20840000      -3.68080000       3.06600000
H       -0.10940000      -2.14210000       3.86380000
H       -1.73630000      -3.40970000       1.60790000
H       -2.32510000      -2.58330000       3.05370000
H       -2.32330000      -1.03060000       0.80720000
