21
Properties=species:S:1:pos:R:3 gdb_86617=T pbc="F F F"
C        0.82330000       1.37210000      -0.24850000
C        0.09420000       0.05440000      -0.00800000
C        0.58070000      -1.14050000      -0.88290000
C        1.15450000      -1.85750000       0.37400000
C        2.64970000      -1.96330000       0.51650000
C        3.59160000      -2.04550000      -0.60490000
O        3.42890000      -0.81930000       0.11650000
C        0.51820000      -0.73630000       1.27580000
O        1.33800000      -0.10590000       2.22710000
H        1.90720000       1.22360000      -0.29220000
H        0.51450000       1.80870000      -1.20420000
H        0.60450000       2.09650000       0.54220000
H       -0.98620000       0.22280000      -0.05510000
H       -0.21800000      -1.70150000      -1.37260000
H        1.31740000      -0.86210000      -1.64070000
H        0.73330000      -2.85170000       0.55780000
H        2.97700000      -2.38430000       1.46790000
H        4.55270000      -2.53790000      -0.46580000
H        3.21890000      -2.03670000      -1.62720000
H       -0.34470000      -1.10430000       1.83710000
H        2.12680000       0.21870000       1.77750000
