20
Properties=species:S:1:pos:R:3 gdb_12852=T pbc="F F F"
C       -0.05320000       1.58670000      -0.10460000
C        0.00920000       0.06970000      -0.01140000
C       -1.31410000      -0.62950000       0.44850000
C       -0.59370000      -1.19370000       1.70510000
C        0.74230000      -0.55510000       1.22890000
O        1.72390000      -1.45690000       0.75200000
C        1.34920000      -1.85370000      -0.56350000
C        0.71440000      -0.60800000      -1.19810000
H        0.94750000       2.01660000      -0.22650000
H       -0.66100000       1.90650000      -0.95930000
H       -0.49910000       2.02390000       0.79570000
H       -2.12930000       0.06640000       0.66260000
H       -1.69080000      -1.38710000      -0.24500000
H       -0.96070000      -0.79450000       2.65390000
H       -0.55230000      -2.28270000       1.78400000
H        1.23100000       0.12050000       1.93590000
H        2.24880000      -2.20430000      -1.07610000
H        0.63040000      -2.68820000      -0.53150000
H        0.03230000      -0.85180000      -2.01820000
H        1.49790000       0.04910000      -1.59120000
