17
Properties=species:S:1:pos:R:3 gdb_102363=T pbc="F F F"
C        0.05710000       1.42360000      -0.06210000
O       -0.06040000       0.01650000      -0.22910000
C       -1.34790000      -0.55610000       0.00430000
C       -2.27600000      -0.30690000      -1.20550000
O       -1.62010000      -0.64800000      -2.40330000
C       -1.05780000      -2.07590000       0.13390000
O       -1.88980000      -2.92520000      -0.00200000
C       -1.96320000      -0.11440000       1.25500000
C       -2.48580000       0.23100000       2.28120000
H        1.10610000       1.66190000      -0.24900000
H       -0.56570000       1.98030000      -0.77460000
H       -0.21090000       1.72850000       0.95520000
H       -3.15000000      -0.95450000      -1.10350000
H       -2.61470000       0.73980000      -1.19610000
H       -0.73000000      -0.27930000      -2.34400000
H        0.00320000      -2.28690000       0.38070000
H       -2.95160000       0.52980000       3.18840000
