12
Properties=species:S:1:pos:R:3 gdb_1164=T pbc="F F F"
C        0.12590000       1.55500000       0.23510000
C        0.02850000       0.03600000       0.04010000
O        0.79070000      -0.55810000       1.08090000
C       -1.44900000      -0.38170000       0.20990000
O       -2.18460000      -0.72080000      -0.67130000
C        0.53710000      -0.36220000      -1.28540000
N        0.96570000      -0.70040000      -2.30290000
H        1.17600000       1.85350000       0.21110000
H       -0.42130000       2.08140000      -0.54960000
H       -0.29150000       1.81810000       1.21090000
H        0.85600000      -1.50690000       0.91860000
H       -1.75600000      -0.33190000       1.27790000
