19
Properties=species:S:1:pos:R:3 gdb_108427=T pbc="F F F"
O       -0.13220000       1.45580000       0.30040000
C        0.00400000       0.05250000       0.11690000
C       -1.38020000      -0.51490000      -0.10970000
C       -2.26110000      -0.58450000       1.16230000
O       -2.18410000      -2.02740000       1.20920000
C       -1.51180000      -2.06280000      -0.07780000
C       -2.41260000      -2.38070000      -1.23900000
C       -2.72260000      -1.28630000      -1.93600000
C       -2.07710000      -0.02960000      -1.39720000
H        0.73900000       1.82630000       0.46910000
H        0.64420000      -0.17720000      -0.75120000
H        0.45910000      -0.42300000       1.00020000
H       -1.83780000      -0.12260000       2.06100000
H       -3.29100000      -0.23100000       1.02670000
H       -0.60830000      -2.68320000      -0.02340000
H       -2.76320000      -3.38480000      -1.44830000
H       -3.36610000      -1.27110000      -2.81010000
H       -2.80900000       0.76280000      -1.19970000
H       -1.36030000       0.39540000      -2.11230000
