21
Properties=species:S:1:pos:R:3 gdb_116200=T pbc="F F F"
C       -0.56880000       1.16000000       0.07540000
O       -0.21980000      -0.20520000       0.08380000
C        0.80600000      -0.53600000       1.00120000
C        0.28540000      -0.72010000       2.43380000
O       -0.17590000      -2.06790000       2.53370000
C        0.21260000      -2.79250000       1.37590000
C        1.29880000      -1.96180000       0.67670000
C        1.48060000      -2.27300000      -0.80310000
O        2.53910000      -2.05690000       1.38310000
H        0.29590000       1.79540000      -0.17150000
H       -1.33610000       1.29150000      -0.69120000
H       -0.97760000       1.49590000       1.03960000
H        1.63160000       0.18580000       0.94300000
H        1.08990000      -0.54810000       3.15930000
H       -0.54400000      -0.04070000       2.65990000
H        0.58750000      -3.77920000       1.67850000
H       -0.64780000      -2.93990000       0.70770000
H        0.56820000      -2.06580000      -1.36420000
H        2.29260000      -1.66650000      -1.21360000
H        1.74430000      -3.32840000      -0.94160000
H        2.79940000      -2.98360000       1.40180000
