18
Properties=species:S:1:pos:R:3 gdb_73436=T pbc="F F F"
O       -0.04870000       1.32370000       0.02670000
C        0.02150000      -0.07740000      -0.02110000
C        1.06430000      -0.61670000      -0.96720000
C        1.04860000      -2.16640000      -1.00300000
N        0.02830000      -2.79960000      -0.17530000
C       -0.32220000      -2.32430000       1.14540000
C       -1.29780000      -2.24960000       0.00960000
C       -1.33610000      -0.69240000       0.12790000
C       -0.33650000      -0.76690000       1.27800000
H        0.78340000       1.64500000       0.39270000
H        0.87730000      -0.19630000      -1.96100000
H        2.05120000      -0.25210000      -0.65310000
H        0.89260000      -2.52210000      -2.02630000
H        2.01240000      -2.56830000      -0.67480000
H       -0.26230000      -3.00720000       1.98570000
H       -2.16110000      -2.86130000      -0.22740000
H       -2.23500000      -0.09500000       0.06230000
H       -0.36640000      -0.23150000       2.21760000
