19
Properties=species:S:1:pos:R:3 gdb_68025=T pbc="F F F"
C        0.01140000       1.49420000       0.13590000
C        0.02830000       0.00120000      -0.02030000
C        0.89070000      -0.78790000      -1.05290000
C        0.73390000      -1.83770000       0.08990000
C        1.71060000      -2.93440000       0.40140000
O        0.72130000      -0.72790000       1.03180000
C       -0.79290000      -2.15520000      -0.03510000
O       -1.57820000      -1.61040000       1.02830000
C       -1.31450000      -0.79560000      -0.11660000
H        1.02770000       1.89530000       0.17770000
H       -0.51210000       1.96080000      -0.70520000
H       -0.50860000       1.77150000       1.05830000
H        0.46790000      -1.00920000      -2.03800000
H        1.90970000      -0.40160000      -1.12990000
H        2.73270000      -2.54830000       0.44420000
H        1.47160000      -3.38980000       1.36760000
H        1.66590000      -3.71530000      -0.36500000
H       -1.18010000      -3.02770000      -0.55070000
H       -2.16390000      -0.46370000      -0.70440000
