20
Properties=species:S:1:pos:R:3 gdb_32830=T pbc="F F F"
C       -0.11220000       1.56100000      -0.09690000
C       -0.02210000       0.06780000       0.00290000
C        0.09820000      -0.81790000      -1.04330000
N        0.14500000      -2.09080000      -0.52550000
C        0.05050000      -2.04680000       0.84670000
C        0.10690000      -3.28410000       1.68350000
C        1.53130000      -3.81130000       1.88620000
O        1.44600000      -4.99640000       2.66140000
C       -0.05110000      -0.71750000       1.19520000
H        0.70610000       2.05590000       0.43990000
H       -0.06780000       1.89090000      -1.13920000
H       -1.04790000       1.94200000       0.32940000
H        0.14640000      -0.64580000      -2.10720000
H        0.20840000      -2.93390000      -1.06880000
H       -0.32720000      -3.07760000       2.66630000
H       -0.49420000      -4.08840000       1.23990000
H        1.99830000      -4.00510000       0.90660000
H        2.13510000      -3.03890000       2.38620000
H        2.33880000      -5.30590000       2.83910000
H       -0.14100000      -0.34400000       2.20530000
