16
Properties=species:S:1:pos:R:3 gdb_9668=T pbc="F F F"
C       -0.26550000       1.05700000      -0.32570000
O        0.43830000      -0.11930000       0.06160000
C        0.98480000      -0.79820000      -1.02000000
C        1.45590000      -2.18650000      -0.77910000
C        0.14110000      -1.98640000      -1.52370000
O       -1.06500000      -2.23000000      -0.87530000
C        0.10460000      -2.21480000      -2.98330000
O        1.07950000      -2.15240000      -3.69770000
H        0.40690000       1.77150000      -0.81830000
H       -1.09500000       0.82380000      -1.00600000
H       -0.65840000       1.50550000       0.58860000
H        1.49020000      -0.18520000      -1.76420000
H        2.29860000      -2.53530000      -1.36520000
H        1.36440000      -2.57590000       0.22880000
H       -1.10150000      -1.62120000      -0.12450000
H       -0.91150000      -2.42900000      -3.37830000
