16
Properties=species:S:1:pos:R:3 gdb_31414=T pbc="F F F"
C       -0.02950000       1.45750000       0.02160000
N        0.04050000       0.00870000      -0.03420000
C        0.61730000      -0.65500000      -1.06120000
N        1.16280000       0.03890000      -2.02480000
C        1.76690000      -0.59060000      -3.07120000
N        2.32720000       0.00610000      -4.03730000
O        1.77090000      -2.03190000      -3.09070000
C        1.20070000      -2.70320000      -2.08890000
C        0.60910000      -2.10490000      -1.04400000
H        0.96850000       1.89080000      -0.08270000
H       -0.65110000       1.85970000      -0.78550000
H       -0.45400000       1.74900000       0.98400000
H       -0.42350000      -0.52840000       0.67650000
H        2.70490000      -0.67220000      -4.69620000
H        1.27300000      -3.77810000      -2.22030000
H        0.15800000      -2.67970000      -0.24690000
