19
Properties=species:S:1:pos:R:3 gdb_66192=T pbc="F F F"
O        0.11140000       1.28370000       0.25030000
C       -0.08480000      -0.12830000       0.13560000
C        0.50780000      -0.71110000      -1.18610000
C        1.81910000      -1.44010000      -0.79810000
C        1.73250000      -1.53750000       0.70550000
C        0.69680000      -0.86570000       1.20590000
C       -1.57900000      -0.37620000       0.24230000
C       -2.51420000       0.58830000       0.82990000
O       -2.43560000       0.40250000      -0.58800000
H        1.05270000       1.42920000       0.38810000
H       -0.19730000      -1.42120000      -1.62740000
H        0.64940000       0.09390000      -1.90940000
H        1.89770000      -2.42630000      -1.26970000
H        2.71980000      -0.89090000      -1.10360000
H        2.46010000      -2.08660000       1.29460000
H        0.44390000      -0.77140000       2.25630000
H       -1.83470000      -1.43690000       0.27860000
H       -3.43160000       0.23050000       1.29610000
H       -2.13130000       1.53910000       1.18870000
