16
Properties=species:S:1:pos:R:3 gdb_113608=T pbc="F F F"
O       -0.07990000       1.43260000      -0.41290000
C       -0.04980000       0.22450000       0.32680000
C       -1.37380000      -0.49660000       0.22790000
N       -1.63970000      -1.09840000      -1.08350000
C       -1.47820000      -1.98730000       0.09700000
C       -0.34250000      -2.86130000       0.12940000
C        0.59180000      -3.62950000       0.19010000
C        1.64630000      -4.48550000       0.25390000
C        2.58220000      -5.24660000       0.31230000
H       -0.25530000       1.18240000      -1.32760000
H        0.75520000      -0.44160000      -0.01190000
H        0.15480000       0.50050000       1.36610000
H       -2.20520000      -0.00720000       0.73220000
H       -2.62700000      -1.03460000      -1.31770000
H       -2.38630000      -2.42720000       0.50520000
H        3.40620000      -5.91430000       0.36210000
