18
Properties=species:S:1:pos:R:3 gdb_6691=T pbc="F F F"
C        0.27890000       1.71670000      -0.14480000
C        0.20430000       0.18660000      -0.25820000
C        0.64910000      -0.49280000       1.04260000
N       -1.12190000      -0.15960000      -0.76660000
C       -1.87860000      -0.94110000      -0.12310000
N       -3.14360000      -1.24520000      -0.62290000
C       -4.03660000      -2.08410000      -0.00220000
O       -3.83710000      -2.65620000       1.04390000
H        1.29780000       2.03890000       0.09110000
H       -0.02960000       2.18400000      -1.08320000
H       -0.38650000       2.07520000       0.64820000
H        0.90380000      -0.11390000      -1.05170000
H        0.01400000      -0.20370000       1.88770000
H        0.63440000      -1.58440000       0.96060000
H        1.67320000      -0.19270000       1.28280000
H       -1.67360000      -1.44480000       0.82150000
H       -3.39430000      -0.80780000      -1.49860000
H       -4.97570000      -2.17770000      -0.57980000
