18
Properties=species:S:1:pos:R:3 gdb_70459=T pbc="F F F"
C        0.30200000       1.33910000      -0.62620000
C        0.13570000      -0.08310000      -0.17800000
C       -1.06350000      -0.60660000       0.59670000
C        0.31090000      -0.77480000       1.15780000
O        0.94870000      -1.92040000       0.57260000
C        0.93190000      -1.27310000      -0.72260000
C        0.35070000      -2.18250000      -1.81180000
C        0.35860000      -1.52510000      -3.11540000
N        0.37260000      -0.97510000      -4.13170000
H        1.36040000       1.60380000      -0.72680000
H       -0.17710000       1.50590000      -1.59740000
H       -0.15030000       2.03180000       0.09010000
H       -1.66210000       0.17840000       1.04930000
H       -1.62660000      -1.48180000       0.28400000
H        0.66380000      -0.43960000       2.12590000
H        1.94990000      -0.97140000      -1.00110000
H        0.94360000      -3.10260000      -1.86550000
H       -0.67320000      -2.47250000      -1.55780000
