17
Properties=species:S:1:pos:R:3 gdb_50381=T pbc="F F F"
O       -0.01550000      -0.07060000      -0.25810000
C       -0.00930000       1.10820000      -0.02510000
C        1.21110000       1.99540000      -0.03930000
O        2.44870000       1.33250000      -0.30770000
C        2.81800000       2.33370000      -1.28880000
C        2.99060000       1.80210000      -2.72030000
O        1.93880000       2.39080000      -3.47630000
C        0.81790000       2.52970000      -2.61430000
C        1.40340000       2.95480000      -1.25220000
H       -0.94370000       1.66530000       0.22860000
H        1.23730000       2.54120000       0.91860000
H        3.65290000       2.94520000      -0.93370000
H        3.93450000       2.09410000      -3.18730000
H        2.91600000       0.70500000      -2.70050000
H        0.15230000       3.27590000      -3.05400000
H        0.27280000       1.57710000      -2.53360000
H        1.31010000       4.02080000      -1.05150000
