16
Properties=species:S:1:pos:R:3 gdb_30639=T pbc="F F F"
O       -0.00310000       1.42020000       0.01040000
C       -0.00260000       0.01880000       0.00360000
C       -1.45430000      -0.45450000       0.01210000
O       -2.39700000       0.29200000       0.02310000
N       -1.62500000      -1.85190000       0.00790000
C       -0.64800000      -2.84510000      -0.00380000
C       -1.27540000      -4.05630000      -0.00380000
C       -2.68850000      -3.81190000       0.00820000
C       -2.87450000      -2.46140000       0.01510000
H        0.91180000       1.71650000       0.00280000
H        0.49030000      -0.40140000      -0.88850000
H        0.50360000      -0.41000000       0.88400000
H        0.40010000      -2.60030000      -0.01090000
H       -0.78620000      -5.01850000      -0.01160000
H       -3.47000000      -4.55600000       0.01120000
H       -3.75720000      -1.84610000       0.02450000
