19
Properties=species:S:1:pos:R:3 gdb_82166=T pbc="F F F"
C       -0.05310000       1.52810000       0.03640000
C        0.11270000       0.03230000      -0.02410000
N       -0.55530000      -0.83850000       0.96800000
C        0.92100000      -0.76290000       0.93690000
C        1.54910000      -1.97700000       0.22750000
O        1.11940000      -3.21000000       0.75640000
C        1.17540000      -1.79260000      -1.25670000
N       -0.26510000      -2.00020000      -1.49720000
C        0.26780000      -0.62670000      -1.39300000
H        0.71820000       2.03600000      -0.55350000
H       -1.02890000       1.83510000      -0.35800000
H        0.02400000       1.89060000       1.06660000
H       -0.90180000      -0.26450000       1.73430000
H        1.43940000      -0.30990000       1.77690000
H        2.63770000      -1.95050000       0.34060000
H        0.15780000      -3.19670000       0.64790000
H        1.88470000      -2.08280000      -2.02520000
H       -0.41160000      -2.22980000      -2.47740000
H        0.26520000       0.00970000      -2.27250000
