22
Properties=species:S:1:pos:R:3 gdb_120044=T pbc="F F F"
C       -0.13930000       1.53350000       0.04010000
C        0.03650000       0.01260000       0.04660000
C        0.66090000      -0.52340000      -1.24810000
C        0.83110000      -2.04130000      -1.26460000
C        1.58480000      -2.55020000      -2.49630000
C        2.88860000      -2.52010000      -1.79490000
C        2.05170000      -2.58050000      -0.45680000
C        1.98160000      -4.09070000      -0.72830000
N        2.30110000      -3.83600000      -2.17380000
H        0.82370000       2.04320000      -0.07640000
H       -0.78300000       1.85380000      -0.78680000
H       -0.59260000       1.88760000       0.97120000
H        0.65790000      -0.27960000       0.90280000
H       -0.93810000      -0.46850000       0.20250000
H        0.03010000      -0.22470000      -2.09730000
H        1.63660000      -0.04610000      -1.41420000
H       -0.12740000      -2.52830000      -1.03840000
H        1.36250000      -2.38050000      -3.54250000
H        3.88270000      -2.19340000      -2.06950000
H        2.30950000      -2.16480000       0.51600000
H        2.80840000      -4.65700000      -0.29180000
H        1.03390000      -4.60970000      -0.53890000
