20
Properties=species:S:1:pos:R:3 gdb_113713=T pbc="F F F"
C        1.17270000       1.53310000       0.38470000
C        0.77810000       0.04880000       0.44980000
C       -0.63600000      -0.11160000       0.79980000
C       -1.78520000      -0.26260000       1.12370000
N        1.07460000      -0.55980000      -0.86100000
C        2.27060000      -1.40280000      -0.94590000
C        0.91780000      -1.99330000      -1.11680000
C        0.34270000      -3.01940000      -0.15220000
O        0.73130000      -2.85900000       1.20160000
H        2.23600000       1.61640000       0.14310000
H        0.59870000       2.04090000      -0.39350000
H        0.99030000       2.02450000       1.34430000
H        1.36400000      -0.42890000       1.24860000
H       -2.80650000      -0.37340000       1.39430000
H        2.92250000      -1.22970000      -1.79830000
H        2.77990000      -1.63670000      -0.01230000
H        0.57930000      -2.18780000      -2.13600000
H       -0.75100000      -3.02510000      -0.24690000
H        0.69690000      -4.00720000      -0.47480000
H        0.07560000      -2.28620000       1.61470000
