18
Properties=species:S:1:pos:R:3 gdb_91723=T pbc="F F F"
C       -0.19250000       1.53940000      -0.02030000
C        0.01830000       0.03590000       0.02710000
O        0.80760000      -0.40460000      -1.10670000
C        1.91190000      -1.15940000      -0.56830000
C        1.29280000      -1.86470000       0.64660000
C        0.84180000      -0.50620000       1.20910000
O        2.08610000       0.24040000       1.25030000
C        2.80710000      -0.16000000       0.14040000
N        3.94970000       0.24820000      -0.19240000
H        0.75550000       2.07120000       0.08050000
H       -0.65030000       1.81760000      -0.97320000
H       -0.86190000       1.85620000       0.78660000
H       -0.95370000      -0.47770000      -0.00250000
H        2.38500000      -1.73410000      -1.35900000
H        0.47240000      -2.53340000       0.38220000
H        2.01680000      -2.37000000       1.28870000
H        0.37440000      -0.46290000       2.19080000
H        4.29620000       0.94270000       0.47300000
