15
Properties=species:S:1:pos:R:3 gdb_48074=T pbc="F F F"
O       -0.45840000       1.48420000       1.32130000
C        0.55830000       1.11500000       0.80250000
C        1.43530000       1.95630000      -0.13670000
O        2.25580000       1.36200000      -0.80890000
C        1.25330000       3.41420000      -0.22950000
C        1.53650000       4.19350000      -1.49570000
C        2.34220000       4.49720000      -0.27420000
C        1.46890000       5.19440000       0.76440000
O        0.44080000       4.17030000       0.66180000
H        0.95910000       0.08210000       0.89450000
H        2.05610000       3.63080000      -2.26280000
H        0.76190000       4.87610000      -1.83300000
H        3.41250000       4.35250000      -0.22260000
H        1.90190000       5.20110000       1.76990000
H        1.08760000       6.19000000       0.51250000
