23
Properties=species:S:1:pos:R:3 gdb_122166=T pbc="F F F"
C        0.21500000       1.25310000      -0.32030000
C       -0.04000000      -0.18410000       0.14080000
C       -1.48430000      -0.61370000      -0.07570000
O       -1.63520000      -1.94290000       0.40890000
C       -2.87590000      -2.55460000       0.16070000
C       -4.01310000      -2.08480000       1.03570000
C       -3.12670000      -3.02570000      -1.26350000
C       -2.69990000      -4.00720000      -0.18690000
O       -1.41540000      -4.54030000      -0.20090000
H        1.25820000       1.53760000      -0.15720000
H        0.00080000       1.37460000      -1.38780000
H       -0.41270000       1.96520000       0.22660000
H        0.61670000      -0.87740000      -0.39800000
H        0.19950000      -0.28990000       1.20510000
H       -2.16580000       0.06460000       0.45940000
H       -1.74840000      -0.56950000      -1.14290000
H       -4.30030000      -1.05150000       0.81040000
H       -4.89680000      -2.71090000       0.88240000
H       -3.73110000      -2.14120000       2.09210000
H       -4.14660000      -3.04860000      -1.63370000
H       -2.37310000      -2.78310000      -2.00510000
H       -3.43560000      -4.71650000       0.18240000
H       -0.82920000      -3.81240000       0.04950000
