17
Properties=species:S:1:pos:R:3 gdb_25743=T pbc="F F F"
C        0.00500000       1.53050000      -0.08070000
C        0.00330000       0.01980000       0.04270000
O        0.00220000      -0.53330000       1.13020000
C        0.00280000      -0.74320000      -1.21800000
C        0.00170000      -2.12040000      -1.37250000
C        0.00160000      -3.24620000      -0.39620000
N        0.00160000      -2.31080000      -2.73090000
C        0.00210000      -1.07930000      -3.33480000
N        0.00290000      -0.11650000      -2.45510000
H        0.88430000       1.86530000      -0.63970000
H       -0.86540000       1.86750000      -0.65200000
H       -0.00080000       1.97040000       0.91700000
H       -0.87810000      -3.88850000      -0.52410000
H        0.89070000      -3.87800000      -0.51200000
H       -0.00700000      -2.83390000       0.61190000
H        0.00080000      -3.20430000      -3.19640000
H        0.00180000      -0.96630000      -4.40890000
