15
Properties=species:S:1:pos:R:3 gdb_127322=T pbc="F F F"
C       -0.00260000       1.48060000       0.01750000
N       -0.01100000       0.03470000       0.01850000
C       -0.04270000      -0.80200000      -1.11030000
C       -0.01890000      -2.12400000      -0.74680000
C        0.03280000      -2.12640000       0.68420000
C        0.03720000      -0.79940000       1.09110000
N        0.08520000      -0.83400000       2.43760000
N        0.11010000      -2.15800000       2.84790000
N        0.07800000      -2.91740000       1.79740000
H        0.93180000       1.87690000       0.43170000
H       -0.09850000       1.83230000      -1.01090000
H       -0.84230000       1.88120000       0.59630000
H       -0.08150000      -0.35020000      -2.08960000
H       -0.03860000      -2.96480000      -1.42090000
H        0.10760000      -0.10980000       3.13380000
