13
Properties=species:S:1:pos:R:3 gdb_129182=T pbc="F F F"
N       -0.31840000       1.15580000       0.06740000
C       -0.11840000      -0.09990000      -0.00760000
N        1.05860000      -0.83190000      -0.12150000
C        0.88240000      -2.26980000      -0.00090000
C       -0.64580000      -2.47200000      -0.01040000
C       -1.18070000      -1.11500000      -0.00820000
N       -2.45350000      -0.83150000       0.00080000
N       -3.55980000      -0.61950000       0.00260000
O       -1.21990000      -3.53390000      -0.01350000
H        0.55700000       1.67890000       0.04660000
H        1.92230000      -0.40000000       0.16420000
H        1.32850000      -2.82260000      -0.83540000
H        1.28660000      -2.68060000       0.93390000
