14
Properties=species:S:1:pos:R:3 gdb_105578=T pbc="F F F"
C       -0.04390000       1.45760000      -0.01650000
O        0.09040000       0.03260000       0.03340000
C        0.68590000      -0.53880000      -1.08790000
C        0.49500000      -2.07100000      -1.13360000
O       -0.32210000      -1.95140000      -2.34140000
C       -0.21980000      -0.59250000      -2.36930000
O       -0.72480000       0.18210000      -3.10970000
C        2.05440000      -0.06300000      -1.33200000
N        3.12800000       0.31830000      -1.52450000
H        0.93810000       1.94350000      -0.06020000
H       -0.64430000       1.76670000      -0.87810000
H       -0.54890000       1.73930000       0.90780000
H        1.38610000      -2.66970000      -1.31940000
H       -0.09010000      -2.44820000      -0.29490000
