18
Properties=species:S:1:pos:R:3 gdb_57150=T pbc="F F F"
C        0.25890000       1.57250000       0.04140000
C        0.02060000       0.04470000      -0.01880000
C        0.58820000      -0.50820000      -1.24350000
C        1.09350000      -0.95670000      -2.24650000
C        1.65990000      -1.47410000      -3.46610000
O        2.62780000      -2.19770000      -3.51730000
C        0.55890000      -0.63990000       1.24060000
C        0.94540000      -2.06870000       1.26960000
N        1.97080000      -1.01200000       1.37500000
H        1.32840000       1.79440000       0.08250000
H       -0.16640000       2.07040000      -0.83320000
H       -0.21220000       1.98210000       0.93940000
H       -1.06580000      -0.12410000      -0.04860000
H        1.12890000      -1.15130000      -4.38460000
H        0.14050000      -0.20310000       2.14610000
H        0.79180000      -2.65320000       2.17200000
H        0.88390000      -2.63040000       0.34170000
H        2.43740000      -0.91800000       0.47380000
