17
Properties=species:S:1:pos:R:3 gdb_36355=T pbc="F F F"
N        0.02160000      -1.08480000      -0.63980000
C        0.03650000      -0.03180000      -0.16630000
C        0.03320000       1.31160000       0.42230000
N        1.34350000       1.93840000       0.28560000
C        1.59990000       2.65970000      -0.96870000
C        1.38340000       3.38810000       0.30110000
C        0.29140000       4.39440000       0.67650000
O        1.24150000       5.15060000       1.45160000
C        2.31630000       4.22380000       1.16870000
H       -0.78390000       1.88470000      -0.04860000
H       -0.20760000       1.22410000       1.48800000
H        2.59750000       2.53680000      -1.38030000
H        0.80100000       2.69850000      -1.70890000
H       -0.13060000       4.98060000      -0.14900000
H       -0.52960000       4.00510000       1.29450000
H        2.68120000       3.71660000       2.06990000
H        3.15390000       4.70940000       0.65400000
