20
Properties=species:S:1:pos:R:3 gdb_70444=T pbc="F F F"
C        0.10050000       1.42510000      -0.37600000
C        0.15070000      -0.03300000      -0.03990000
N       -0.88600000      -0.68040000       0.80730000
C        0.54710000      -0.76190000       1.19790000
C        1.12990000      -1.92720000       0.39710000
C        0.72660000      -1.16540000      -0.92130000
C       -0.21390000      -1.83990000      -1.87820000
C       -0.19580000      -1.55910000      -3.32060000
O        0.37510000      -2.76150000      -2.80710000
H        1.06190000       1.77270000      -0.76960000
H       -0.66460000       1.63380000      -1.13320000
H       -0.13500000       2.02470000       0.51050000
H       -1.30650000       0.05980000       1.36980000
H        0.87530000      -0.37610000       2.15590000
H        2.21160000      -2.03590000       0.49590000
H        0.64700000      -2.89310000       0.56430000
H        1.61920000      -0.83190000      -1.45860000
H       -1.14670000      -2.18660000      -1.43630000
H       -1.10410000      -1.68400000      -3.90920000
H        0.51640000      -0.83710000      -3.72060000
