18
Properties=species:S:1:pos:R:3 gdb_13767=T pbc="F F F"
C        0.40660000       1.53550000      -0.12010000
C        0.11480000       0.04720000       0.10940000
C        0.59100000      -0.39750000       1.49610000
N       -1.30220000      -0.37500000      -0.01310000
C       -2.38880000       0.56810000      -0.15960000
C       -2.01420000      -0.34670000      -1.29010000
C       -1.41790000       0.20530000      -2.48380000
N       -0.93190000       0.60430000      -3.45530000
H        1.48580000       1.70260000      -0.05210000
H        0.08610000       1.88310000      -1.10500000
H       -0.07020000       2.15600000       0.64660000
H        0.65760000      -0.53290000      -0.64630000
H        0.41620000      -1.46650000       1.63850000
H        1.65920000      -0.19480000       1.62100000
H        0.04960000       0.14220000       2.28080000
H       -3.29000000       0.35560000       0.41000000
H       -2.16910000       1.62350000      -0.29740000
H       -2.61890000      -1.22850000      -1.48870000
