18
Properties=species:S:1:pos:R:3 gdb_126778=T pbc="F F F"
C       -0.13460000       1.55610000      -0.07880000
C        0.04940000       0.03610000      -0.08270000
N        0.79350000      -0.44380000      -1.22790000
N        0.16940000      -0.56020000      -2.44440000
C        1.11150000      -1.03080000      -3.24350000
O        0.86610000      -1.29070000      -4.54610000
C        2.35140000      -1.20900000      -2.59740000
C        2.09820000      -0.80790000      -1.29550000
N        2.91060000      -0.81130000      -0.15510000
H        0.82820000       2.07460000      -0.02110000
H       -0.63800000       1.87480000      -0.99500000
H       -0.74090000       1.86440000       0.77870000
H        0.58020000      -0.30150000       0.81250000
H       -0.92550000      -0.46000000      -0.09860000
H       -0.06150000      -1.07240000      -4.70140000
H        3.28050000      -1.55720000      -3.01580000
H        3.83550000      -1.16100000      -0.36740000
H        2.99750000       0.10060000       0.27910000
