15
Properties=species:S:1:pos:R:3 gdb_20959=T pbc="F F F"
C       -0.00230000       1.48070000      -0.01980000
C        0.00240000      -0.03550000      -0.00030000
O        0.67700000      -0.48230000      -1.18570000
C        0.77990000      -1.80590000      -1.34280000
N        0.30570000      -2.70920000      -0.48740000
N        0.64760000      -3.86350000      -1.07080000
N        1.29650000      -3.77910000      -2.21910000
C        1.39850000      -2.46720000      -2.42430000
H        1.01880000       1.87210000      -0.03100000
H       -0.52510000       1.85610000      -0.90390000
H       -0.50980000       1.86240000       0.87090000
H        0.52360000      -0.42950000       0.88040000
H       -1.01460000      -0.44540000       0.01100000
H        0.42030000      -4.74960000      -0.65260000
H        1.88610000      -2.06110000      -3.29420000
