18
Properties=species:S:1:pos:R:3 gdb_36453=T pbc="F F F"
N       -0.05240000      -1.12980000      -0.34020000
C       -0.01230000      -0.01420000      -0.04160000
C        0.07010000       1.39930000       0.32290000
C        1.46430000       1.98440000       0.05960000
C        1.84270000       2.19990000      -1.42370000
O        1.83310000       3.63710000      -1.26150000
C        1.56620000       3.50810000       0.13470000
C        0.74360000       4.51080000       0.87510000
C        2.23780000       4.37560000       1.14550000
H       -0.68280000       1.95580000      -0.24660000
H       -0.19310000       1.50250000       1.38190000
H        2.21350000       1.44760000       0.64490000
H        2.83120000       1.82800000      -1.71290000
H        1.10060000       1.86520000      -2.15750000
H        0.41410000       5.37860000       0.31390000
H        0.04550000       4.17050000       1.63350000
H        2.55690000       3.93350000       2.08420000
H        2.88620000       5.15730000       0.76530000
