16
Properties=species:S:1:pos:R:3 gdb_46621=T pbc="F F F"
N       -0.08650000       1.31820000      -0.00500000
C       -0.04860000       0.05780000       0.03550000
O        1.07650000      -0.73760000      -0.02530000
C        0.71950000      -2.13490000      -0.01800000
C       -0.78320000      -2.11000000       0.00180000
N       -1.71470000      -2.96250000      -0.12470000
C       -2.97150000      -2.17410000      -0.03460000
C       -2.57030000      -0.65200000      -0.00500000
N       -1.12990000      -0.78470000       0.15740000
H        0.85130000       1.70150000      -0.10100000
H        1.12000000      -2.62100000      -0.91190000
H        1.14410000      -2.61430000       0.86990000
H       -3.61900000      -2.41070000      -0.88320000
H       -3.51100000      -2.46030000       0.87480000
H       -2.80720000      -0.12550000      -0.93550000
H       -3.01810000      -0.10230000       0.82560000
