14
Properties=species:S:1:pos:R:3 gdb_45665=T pbc="F F F"
O       -0.08500000      -0.07150000      -0.08720000
C       -0.06540000       1.11970000       0.05040000
C       -1.36090000       2.01950000       0.03120000
N       -1.19580000       2.82410000       1.23760000
C       -0.09500000       3.43250000       1.18880000
O        0.83160000       3.38890000       2.23890000
C        1.78120000       2.98610000       1.23130000
C        0.97770000       3.43850000       0.08900000
C        1.22130000       1.94930000       0.15140000
H       -1.38190000       2.57780000      -0.91590000
H       -2.25150000       1.39610000       0.10090000
H        2.83240000       3.05160000       1.47810000
H        1.15260000       4.13130000      -0.72220000
H        2.02630000       1.52770000      -0.44630000
