23
Properties=species:S:1:pos:R:3 gdb_101209=T pbc="F F F"
C        0.15710000       1.56260000      -0.07690000
C        0.11040000       0.03450000       0.02630000
C        0.68430000      -0.54340000       1.33450000
C       -0.12090000      -0.10520000       2.56650000
C        0.76650000      -2.07000000       1.25950000
C        1.74300000      -2.69840000       0.21130000
C        2.26860000      -3.61310000       1.32750000
O        2.93190000      -4.60900000       1.34060000
C        1.52200000      -2.81680000       2.40780000
H        1.18040000       1.93600000       0.04440000
H       -0.20340000       1.89790000      -1.05430000
H       -0.46430000       2.04460000       0.68360000
H       -0.92720000      -0.30970000      -0.08690000
H        0.66350000      -0.39200000      -0.81960000
H        1.71310000      -0.16440000       1.44590000
H       -0.12450000       0.98190000       2.68390000
H       -1.16360000      -0.43580000       2.48700000
H        0.29320000      -0.53240000       3.48510000
H       -0.24060000      -2.48430000       1.13700000
H        1.32560000      -3.19780000      -0.66640000
H        2.51560000      -1.99580000      -0.12360000
H        2.20560000      -2.16340000       2.96350000
H        0.94320000      -3.40210000       3.12660000
