20
Properties=species:S:1:pos:R:3 gdb_58734=T pbc="F F F"
C        0.05650000       1.47980000      -0.22910000
C        0.00160000      -0.00820000       0.12130000
O        0.72360000      -0.29410000       1.31930000
C       -1.40000000      -0.52830000       0.20110000
C       -2.00770000      -1.87140000       0.06300000
C       -2.90700000      -1.66590000       1.27890000
C       -2.70240000      -0.14720000       1.03340000
C       -3.35520000       0.05000000      -0.34250000
N       -2.28730000      -0.79890000      -0.96740000
H        1.09530000       1.81640000      -0.28040000
H       -0.42480000       1.66780000      -1.19340000
H       -0.46130000       2.07800000       0.53120000
H        0.51310000      -0.58060000      -0.66180000
H        0.36270000       0.26550000       2.01580000
H       -1.56720000      -2.78440000      -0.31570000
H       -3.93430000      -2.04620000       1.25610000
H       -2.40290000      -2.00610000       2.18680000
H       -2.80530000       0.57180000       1.84490000
H       -4.38240000      -0.30760000      -0.48370000
H       -3.26030000       1.06540000      -0.73540000
