23
Properties=species:S:1:pos:R:3 gdb_92726=T pbc="F F F"
C        0.17260000       1.60800000       0.00650000
C        0.03120000       0.08100000       0.00620000
C        0.51770000      -0.52530000      -1.32740000
C        0.66940000      -2.02410000      -1.28770000
C        0.95080000      -2.70500000      -0.17160000
C        1.11830000      -4.20000000      -0.14970000
C        1.13160000      -1.99760000       1.12710000
C        2.17590000      -0.89200000       1.23400000
C        0.71170000      -0.54760000       1.21140000
H        1.22670000       1.90040000      -0.05770000
H       -0.35330000       2.05540000      -0.84410000
H       -0.23860000       2.04620000       0.92220000
H       -1.03730000      -0.16240000       0.09620000
H       -0.18190000      -0.23940000      -2.12220000
H        1.47400000      -0.05780000      -1.60930000
H        0.57160000      -2.55940000      -2.22920000
H        0.97860000      -4.63630000      -1.14240000
H        2.11640000      -4.48080000       0.21080000
H        0.39870000      -4.66990000       0.53350000
H        0.99410000      -2.60980000       2.01390000
H        2.71260000      -0.78610000       2.17080000
H        2.77650000      -0.69910000       0.35170000
H        0.29240000      -0.23400000       2.16430000
