19
Properties=species:S:1:pos:R:3 gdb_89169=T pbc="F F F"
C        0.16580000       1.17400000      -0.89730000
C        0.57410000      -0.27390000      -0.65770000
C        1.89030000      -0.86450000      -1.28220000
C        2.26970000      -1.39070000       0.11490000
O        2.74940000      -2.66060000       0.36090000
C        2.45710000      -0.27050000       1.12720000
C        3.10240000       1.03500000       0.86160000
O        3.75530000       1.63230000       1.68650000
C        1.04910000      -0.75190000       0.72250000
H        0.95230000       1.88570000      -0.63300000
H       -0.08630000       1.33320000      -1.95140000
H       -0.71910000       1.42780000      -0.30360000
H       -0.25780000      -0.92030000      -0.95710000
H        1.69110000      -1.68400000      -1.97540000
H        2.58220000      -0.16350000      -1.75690000
H        3.70880000      -2.65210000       0.26640000
H        2.71880000      -0.65620000       2.10950000
H        2.99290000       1.44070000      -0.16570000
H        0.40750000      -1.12190000       1.51360000
