18
Properties=species:S:1:pos:R:3 gdb_42368=T pbc="F F F"
O       -0.28960000       0.88230000       2.18780000
C        0.02080000       1.10540000       1.04630000
C        1.46040000       1.57400000       0.72740000
C        1.92960000       1.38570000      -0.63650000
C        2.32050000       1.22650000      -1.76200000
C       -0.95330000       1.02320000      -0.11850000
N       -2.24520000       0.52130000       0.28570000
C       -3.16120000       1.48170000       0.88500000
C       -3.39470000       0.97040000      -0.49410000
H        1.49260000       2.64170000       0.98790000
H        2.11620000       1.07160000       1.44590000
H        2.66750000       1.08370000      -2.75550000
H       -0.98500000       2.03150000      -0.58140000
H       -0.52250000       0.36630000      -0.88360000
H       -3.74430000       1.11380000       1.72310000
H       -2.82900000       2.51430000       0.98180000
H       -3.21840000       1.65960000      -1.31900000
H       -4.15380000       0.21780000      -0.68600000
