14
Properties=species:S:1:pos:R:3 gdb_29894=T pbc="F F F"
C        0.27010000       1.45820000      -0.00400000
N       -0.02310000       0.02740000      -0.00710000
C       -0.35020000      -0.65820000      -1.14960000
N       -0.61790000      -1.90650000      -1.22630000
C       -0.57870000      -2.64760000      -0.06160000
N       -0.82400000      -3.88180000      -0.01960000
O       -0.24290000      -1.96850000       1.14240000
C        0.03840000      -0.64820000       1.21160000
O        0.31770000      -0.10910000       2.24410000
H        1.28290000       1.63730000       0.36270000
H        0.17890000       1.83270000      -1.02460000
H       -0.43110000       1.98770000       0.64440000
H       -0.37400000      -0.05140000      -2.05240000
H       -0.73910000      -4.23080000       0.93450000
