21
Properties=species:S:1:pos:R:3 gdb_57970=T pbc="F F F"
C        0.00090000       1.32940000      -0.18240000
N       -0.04200000      -0.12190000      -0.24410000
C       -1.06810000      -0.76720000       0.55640000
C        0.90240000      -0.78190000      -0.98010000
O        1.75700000      -0.20210000      -1.63450000
C        0.87360000      -2.31690000      -0.97090000
N       -0.29910000      -2.83610000      -1.67310000
C       -0.20200000      -2.84750000      -3.13220000
C       -0.11960000      -4.11520000      -2.35650000
H        0.16540000       1.66940000       0.84840000
H        0.81760000       1.67520000      -0.81360000
H       -0.94530000       1.75780000      -0.53540000
H       -0.80880000      -0.77100000       1.62480000
H       -2.00910000      -0.21610000       0.44550000
H       -1.24180000      -1.78430000       0.20960000
H        1.81930000      -2.62050000      -1.44170000
H        0.86190000      -2.70720000       0.05360000
H       -1.11200000      -2.58700000      -3.66430000
H        0.71470000      -2.46680000      -3.57670000
H        0.85440000      -4.59580000      -2.28700000
H       -0.96700000      -4.79320000      -2.31430000
