21
Properties=species:S:1:pos:R:3 gdb_72906=T pbc="F F F"
C       -0.28310000       1.48590000       0.00600000
C        0.04490000      -0.00060000      -0.04370000
C       -1.08820000      -0.93760000       0.44230000
O       -0.29280000      -1.42820000       1.53900000
C        0.83680000      -0.59590000       1.16140000
C        2.04740000      -1.33450000       0.62270000
C        1.76110000      -2.56630000      -0.19950000
C        2.00330000      -1.25760000      -0.89710000
C        0.80500000      -0.41490000      -1.33010000
H        0.62620000       2.09100000      -0.08350000
H       -0.95180000       1.76940000      -0.81520000
H       -0.77640000       1.75440000       0.94600000
H       -1.99310000      -0.42560000       0.79470000
H       -1.38170000      -1.73900000      -0.24890000
H        1.09970000       0.09190000       1.97310000
H        2.98230000      -1.27100000       1.16720000
H        2.54400000      -3.31450000      -0.25810000
H        0.75800000      -2.97510000      -0.15280000
H        2.92190000      -1.15380000      -1.46470000
H        0.15070000      -0.94930000      -2.02940000
H        1.16010000       0.47830000      -1.85590000
