15
Properties=species:S:1:pos:R:3 gdb_13911=T pbc="F F F"
N        0.08850000       1.26520000       0.02040000
C        0.09290000      -0.07820000      -0.19270000
O        1.14210000      -0.67940000      -0.42790000
C       -1.22390000      -0.75510000      -0.09430000
C       -1.73420000      -1.63190000      -1.27470000
O       -0.96960000      -1.78920000      -2.41060000
C       -1.25520000      -2.28640000      -0.02130000
O       -0.06540000      -2.99650000      -0.12350000
H        0.95110000       1.76240000      -0.13500000
H       -0.76880000       1.78990000       0.03250000
H       -1.99370000      -0.22320000       0.45540000
H       -2.79750000      -1.55000000      -1.48030000
H       -0.28040000      -2.43180000      -2.17690000
H       -1.96640000      -2.73670000       0.66580000
H        0.65620000      -2.32940000      -0.14900000
