16
Properties=species:S:1:pos:R:3 gdb_98256=T pbc="F F F"
N        0.63380000       0.08030000      -0.85280000
C       -0.34320000       0.60430000      -0.08300000
O       -0.31430000       1.70370000       0.43850000
C       -1.55310000      -0.35270000       0.09720000
O       -1.42200000      -1.53530000      -0.64700000
C       -1.71940000      -0.69410000       1.58290000
O       -1.55070000      -1.84400000       1.93190000
C       -2.18980000       0.40550000       2.52300000
O       -3.54520000       0.71230000       2.21030000
H        1.43360000       0.64600000      -1.08180000
H        0.47310000      -0.80630000      -1.30240000
H       -2.43730000       0.21600000      -0.21790000
H       -1.35260000      -2.24040000       0.02140000
H       -2.06140000       0.06890000       3.55850000
H       -1.61310000       1.31460000       2.34070000
H       -4.08630000      -0.03670000       2.48320000
