17
Properties=species:S:1:pos:R:3 gdb_85590=T pbc="F F F"
C       -0.17950000       1.36850000       0.34110000
N        0.02330000      -0.02700000      -0.00860000
C       -1.05130000      -0.74330000      -0.68260000
C       -1.05470000      -2.21580000      -0.33930000
N       -2.14300000      -2.84700000      -0.21990000
O        0.16010000      -2.79620000      -0.16720000
C        1.32650000      -2.01740000      -0.45280000
C        1.26890000      -0.57570000       0.04460000
O        2.27090000      -0.00120000       0.42840000
H        0.72680000       1.72500000       0.82950000
H       -0.36790000       1.97950000      -0.55090000
H       -1.03270000       1.46900000       1.01990000
H       -2.01280000      -0.33360000      -0.37310000
H       -0.98560000      -0.62310000      -1.77640000
H       -1.96230000      -3.83330000      -0.02190000
H        2.16050000      -2.51250000       0.04290000
H        1.51980000      -2.01660000      -1.53510000
