10
Properties=species:S:1:pos:R:3 gdb_130584=T pbc="F F F"
O       -0.00840000       0.07390000       0.52920000
C       -0.79870000       0.88410000       0.33250000
C       -1.72400000       1.81410000       0.10560000
C       -1.40700000       3.21540000       0.33370000
O       -0.34670000       3.65790000       0.72320000
N        2.98640000       3.17370000      -0.64180000
N        2.16580000       2.44850000      -0.72850000
C       -2.53450000       4.12660000       0.04310000
N       -3.40790000       4.84990000      -0.18070000
H       -2.69580000       1.49030000      -0.24350000
