20
Properties=species:S:1:pos:R:3 gdb_9430=T pbc="F F F"
C        0.22230000       1.48850000      -0.07880000
C        0.10210000      -0.02470000      -0.02450000
O        0.63220000      -0.56430000      -1.22150000
C        0.59370000      -1.97750000      -1.28080000
C        1.32440000      -2.37900000      -2.55510000
O        2.64400000      -1.84590000      -2.54940000
C        1.48240000      -3.88700000      -2.71440000
O        2.20730000      -4.19840000      -3.88560000
H        1.27000000       1.78850000      -0.17380000
H       -0.32820000       1.88750000      -0.93530000
H       -0.18370000       1.93470000       0.83370000
H        0.64730000      -0.42860000       0.84440000
H       -0.95230000      -0.32630000       0.08710000
H        1.09980000      -2.41080000      -0.40260000
H       -0.44620000      -2.34250000      -1.29300000
H        0.76470000      -1.98820000      -3.41990000
H        2.55730000      -0.91720000      -2.30390000
H        1.97750000      -4.29070000      -1.81550000
H        0.50050000      -4.36370000      -2.80430000
H        2.98070000      -3.62140000      -3.87370000
