21
Properties=species:S:1:pos:R:3 gdb_83962=T pbc="F F F"
C       -0.25590000       1.53420000       0.00930000
C        0.05840000       0.03910000       0.00300000
C        0.91740000      -0.51930000      -1.16470000
C        2.26480000       0.23770000      -1.19330000
O        2.99770000       0.09110000       0.01740000
C        2.25310000       0.22510000       1.22240000
C        0.90610000      -0.53140000       1.17300000
C        1.15260000      -1.94580000       0.66460000
C        1.15900000      -1.93880000      -0.66880000
H        0.63170000       2.17080000       0.01650000
H       -0.84440000       1.80350000      -0.87500000
H       -0.85230000       1.79440000       0.89100000
H       -0.89470000      -0.50190000      -0.00450000
H        0.43530000      -0.44750000      -2.14510000
H        2.91810000      -0.16230000      -1.97560000
H        2.09210000       1.30160000      -1.42060000
H        2.89890000      -0.18300000       2.00680000
H        2.07820000       1.28670000       1.45910000
H        0.41460000      -0.46990000       2.14940000
H        1.37050000      -2.78960000       1.30840000
H        1.38320000      -2.77590000      -1.31920000
