21
Properties=species:S:1:pos:R:3 gdb_61770=T pbc="F F F"
C       -0.04570000       1.61860000       0.07510000
C        0.03090000       0.08590000       0.01320000
C        0.76030000      -0.36390000      -1.27090000
C       -0.04290000      -0.07280000      -2.51550000
O        0.34390000       0.55850000      -3.46540000
C        0.71110000      -0.51960000       1.27720000
C        0.04570000      -0.07160000       2.59600000
C        0.73480000      -1.98140000       1.21140000
C        0.72440000      -3.18360000       1.17190000
H        0.95030000       2.05450000       0.21760000
H       -0.44620000       2.02510000      -0.85870000
H       -0.68820000       1.96660000       0.88700000
H       -0.99170000      -0.31590000      -0.02060000
H        1.74000000       0.11660000      -1.36270000
H        0.91040000      -1.45120000      -1.23120000
H       -1.07250000      -0.50550000      -2.49970000
H        1.75240000      -0.16480000       1.28740000
H       -1.01920000      -0.32470000       2.59730000
H        0.51210000      -0.57760000       3.44470000
H        0.14810000       1.00560000       2.74440000
H        0.73000000      -4.24510000       1.13920000
