18
Properties=species:S:1:pos:R:3 gdb_43672=T pbc="F F F"
O        0.32270000       0.09820000       0.46960000
C        0.12070000       1.26170000       0.25160000
C       -1.12450000       2.14920000      -0.01090000
C       -0.12460000       3.34240000      -0.02970000
C       -0.24130000       4.36700000       1.09890000
C        0.92450000       5.32930000       1.10160000
C        1.63610000       5.71290000       2.32640000
O        2.20720000       4.76810000       1.41820000
N        0.94910000       2.35480000       0.15020000
H       -1.64460000       1.94590000      -0.94830000
H       -1.84110000       2.15720000       0.81330000
H       -0.06480000       3.85370000      -0.99870000
H       -1.17260000       4.93560000       0.98110000
H       -0.29040000       3.84020000       2.05880000
H        0.95570000       6.02560000       0.26130000
H        2.14770000       6.67240000       2.38100000
H        1.31180000       5.30390000       3.28230000
H        1.90910000       2.49660000       0.43050000
