17
Properties=species:S:1:pos:R:3 gdb_79983=T pbc="F F F"
C       -0.14830000       1.61090000       0.03110000
C        0.02700000       0.10120000       0.03770000
C        1.18510000      -0.58190000      -0.77870000
C        2.43120000      -0.06010000      -0.09150000
C        2.11820000      -0.06250000       1.21790000
C        0.69590000      -0.60170000       1.26100000
O       -0.01240000      -0.70900000       2.44280000
C        0.94040000      -1.79330000       0.21850000
O        0.90500000      -2.97700000       0.19280000
H        0.79350000       2.12750000       0.22850000
H       -0.53090000       1.94870000      -0.93710000
H       -0.87100000       1.90680000       0.79790000
H       -0.92520000      -0.39660000      -0.18530000
H        1.15660000      -0.68770000      -1.85920000
H        3.38280000       0.13270000      -0.56590000
H        2.74020000       0.13790000       2.07950000
H        0.51950000      -1.18990000       3.08600000
