16
Properties=species:S:1:pos:R:3 gdb_127518=T pbc="F F F"
C        0.00580000       1.40480000      -0.03180000
N        0.02140000      -0.04800000      -0.00010000
N       -0.01240000      -0.66870000      -1.20310000
C        0.00000000      -1.96140000      -1.22390000
O       -0.03330000      -2.59980000      -2.41850000
C        0.04770000      -2.77040000      -0.04310000
C        0.08110000      -2.13880000       1.14750000
C        0.06950000      -0.68540000       1.23930000
N        0.09780000       0.04570000       2.30250000
H        0.89980000       1.80140000       0.45830000
H       -0.03230000       1.71110000      -1.07570000
H       -0.86120000       1.78370000       0.51730000
H       -0.06260000      -1.91640000      -3.10150000
H        0.05550000      -3.84970000      -0.13890000
H        0.11790000      -2.69010000       2.08070000
H        0.13150000      -0.54680000       3.12940000
