21
Properties=species:S:1:pos:R:3 gdb_121854=T pbc="F F F"
C        0.04280000       1.44370000      -0.15890000
C        0.07700000      -0.01070000      -0.11340000
C        0.11350000      -1.21320000      -0.08190000
C        0.13360000      -2.67370000      -0.01970000
C       -1.26600000      -3.24680000       0.25100000
O        0.67190000      -3.15710000      -1.25170000
C        1.18070000      -4.48090000      -1.21550000
C        2.02580000      -4.64230000      -2.47120000
O        3.06780000      -3.69040000      -2.51260000
H        0.74700000       1.88220000       0.55650000
H        0.31100000       1.81090000      -1.15560000
H       -0.95580000       1.82690000       0.07760000
H        0.80530000      -2.98260000       0.79920000
H       -1.22930000      -4.33650000       0.33600000
H       -1.66360000      -2.84310000       1.18600000
H       -1.94190000      -2.97640000      -0.56400000
H        1.80840000      -4.62150000      -0.32130000
H        0.37400000      -5.22960000      -1.19460000
H        2.48630000      -5.63590000      -2.48110000
H        1.37110000      -4.56460000      -3.35420000
H        2.64760000      -2.84390000      -2.31580000
