16
Properties=species:S:1:pos:R:3 gdb_10661=T pbc="F F F"
O        0.10340000       1.35630000      -0.32990000
C        0.06530000       0.03080000       0.15870000
C       -1.34280000      -0.54580000       0.14090000
C       -1.89850000      -1.12880000      -1.16780000
C       -1.55710000      -2.04000000      -0.03900000
O       -0.40090000      -2.81830000      -0.07310000
C       -2.32330000       0.17070000       0.98630000
O       -2.09150000       1.21100000       1.56180000
H       -0.42230000       1.87750000       0.29020000
H        0.71780000      -0.57150000      -0.47610000
H        0.45690000      -0.03100000       1.18490000
H       -2.94290000      -0.96170000      -1.40980000
H       -1.21510000      -1.07700000      -2.00800000
H       -2.38650000      -2.48020000       0.51680000
H       -0.52190000      -3.50520000      -0.73710000
H       -3.32880000      -0.30430000       1.05940000
