23
Properties=species:S:1:pos:R:3 gdb_90930=T pbc="F F F"
C       -0.15050000       1.58060000       0.00940000
C        0.04560000       0.06510000      -0.00260000
C        0.87290000      -0.48080000      -1.20240000
C        1.59580000      -1.69610000      -0.62430000
C        2.58640000      -1.48300000       0.51700000
C        2.30910000      -0.15590000       1.21950000
C        0.78600000      -0.52120000       1.21380000
C        1.17320000      -1.97350000       0.79430000
C        0.65410000      -3.26180000       1.35700000
H        0.80830000       2.10870000       0.05480000
H       -0.66980000       1.91870000      -0.89390000
H       -0.74660000       1.89800000       0.87200000
H       -0.94560000      -0.40960000      -0.03320000
H        0.22970000      -0.75630000      -2.04430000
H        1.57520000       0.27470000      -1.57630000
H        1.81520000      -2.54380000      -1.26570000
H        3.51520000      -2.04270000       0.55360000
H        2.71500000      -0.14680000       2.23450000
H        2.61280000       0.76950000       0.71660000
H        0.26370000      -0.38770000       2.16310000
H       -0.41890000      -3.38380000       1.16300000
H        1.16730000      -4.11970000       0.90890000
H        0.80110000      -3.31920000       2.44210000
