19
Properties=species:S:1:pos:R:3 gdb_41357=T pbc="F F F"
C        0.09140000       1.52430000       0.27650000
O        1.50300000       1.40750000      -0.11100000
C        1.12770000       0.26340000      -0.91520000
C        0.59310000       0.66150000      -2.32610000
C       -0.77460000      -0.08050000      -2.40660000
C       -0.73550000      -0.89290000      -1.11150000
O        0.38110000      -1.84740000      -1.23180000
C        1.65860000      -1.15590000      -1.01090000
C       -0.11480000       0.02300000      -0.06450000
H       -0.01000000       1.79960000       1.32840000
H       -0.43920000       2.24700000      -0.35300000
H        0.48800000       1.74500000      -2.40040000
H        1.28470000       0.34530000      -3.11050000
H       -1.62380000       0.61180000      -2.41800000
H       -0.85840000      -0.73470000      -3.27670000
H       -1.61980000      -1.48270000      -0.87090000
H        2.31060000      -1.36740000      -1.86430000
H        2.12800000      -1.51340000      -0.08750000
H        0.12610000      -0.55810000       0.82810000
