23
Properties=species:S:1:pos:R:3 gdb_90878=T pbc="F F F"
C       -0.18420000       1.59870000      -0.16070000
C        0.00820000       0.09340000      -0.01370000
C        0.97270000      -0.67560000      -0.97640000
C        1.62420000      -1.39160000       0.24450000
C        3.03730000      -0.98350000       0.70560000
C        2.84370000      -0.98070000       2.25600000
C        1.91230000       0.23670000       1.93300000
C        2.94950000       0.56370000       0.81780000
C        0.76570000      -0.50430000       1.21540000
H        0.75860000       2.15110000      -0.11620000
H       -0.66060000       1.83580000      -1.11890000
H       -0.83120000       1.98860000       0.63340000
H       -0.98100000      -0.37600000      -0.05940000
H        0.47120000      -1.33900000      -1.68550000
H        1.65710000      -0.03820000      -1.54380000
H        1.46640000      -2.47150000       0.28150000
H        3.88890000      -1.47240000       0.23020000
H        2.39170000      -1.86320000       2.71980000
H        3.74800000      -0.68990000       2.79600000
H        1.64730000       0.97140000       2.69430000
H        3.86380000       0.99210000       1.23550000
H        2.64440000       1.14380000      -0.05280000
H        0.12190000      -1.01160000       1.93910000
