27
Properties=species:S:1:pos:R:3 gdb_60388=T pbc="F F F"
C       -0.04080000       1.49560000      -0.32350000
C        0.05430000       0.01180000       0.05800000
C        0.77520000      -0.15180000       1.40390000
C       -1.34280000      -0.63460000       0.05280000
C       -1.36080000      -2.16130000       0.22090000
C       -2.76170000      -2.73210000       0.11820000
C       -3.37230000      -3.07080000      -1.22340000
C       -3.05430000      -4.17260000      -0.23940000
C       -1.97280000      -5.19250000      -0.52450000
H        0.94980000       1.96100000      -0.36470000
H       -0.51530000       1.62720000      -1.30180000
H       -0.63660000       2.05080000       0.41120000
H        0.65750000      -0.49370000      -0.71110000
H        0.92540000      -1.20300000       1.66650000
H        1.76060000       0.32590000       1.38160000
H        0.19990000       0.31540000       2.21280000
H       -1.95180000      -0.17440000       0.84490000
H       -1.84270000      -0.38670000      -0.89270000
H       -0.71380000      -2.61060000      -0.54250000
H       -0.92740000      -2.43750000       1.19050000
H       -3.45070000      -2.29840000       0.84070000
H       -4.40860000      -2.81500000      -1.41660000
H       -2.72810000      -2.98660000      -2.09470000
H       -3.91660000      -4.59440000       0.27200000
H       -1.13650000      -4.76070000      -1.08150000
H       -1.56910000      -5.61900000       0.40110000
H       -2.36970000      -6.01940000      -1.12400000
