21
Properties=species:S:1:pos:R:3 gdb_111099=T pbc="F F F"
C        0.25620000       1.63500000      -0.17300000
C        0.12170000       0.17090000       0.21100000
O        0.60540000      -0.70280000      -0.85150000
C        1.53310000      -1.54480000      -0.14790000
C        0.77740000      -1.88990000       1.15710000
C        0.97830000      -0.35570000       1.37830000
C        2.36740000      -0.51620000       0.66590000
C        3.53150000      -0.99660000       1.51040000
O        3.87740000       0.07000000       2.38820000
H        1.29990000       1.94090000      -0.27920000
H       -0.24890000       1.81670000      -1.12640000
H       -0.21430000       2.26790000       0.58720000
H       -0.94030000      -0.05330000       0.38460000
H        1.95650000      -2.27860000      -0.83360000
H       -0.24500000      -2.25980000       1.04640000
H        1.33430000      -2.51580000       1.85290000
H        0.87200000       0.12620000       2.34870000
H        2.70270000       0.34330000       0.08020000
H        3.28440000      -1.90430000       2.07910000
H        4.37450000      -1.24990000       0.84690000
H        4.64930000      -0.19790000       2.89550000
