20
Properties=species:S:1:pos:R:3 gdb_48853=T pbc="F F F"
O       -0.11370000       0.00900000       0.23210000
C        0.03600000       1.13040000      -0.18430000
C        1.26800000       1.95400000       0.02100000
C        1.04900000       3.42470000       0.22370000
N        1.44560000       2.93850000      -1.07900000
C        2.81350000       3.23850000      -1.55430000
C        3.87360000       2.20930000      -1.14970000
C        3.79240000       1.89980000       0.34720000
C        2.44450000       1.24070000       0.66670000
H       -0.74930000       1.65270000      -0.77450000
H        0.04180000       3.83120000       0.29800000
H        1.78790000       3.93520000       0.84050000
H        2.76540000       3.31620000      -2.64580000
H        3.10420000       4.22790000      -1.17890000
H        3.72660000       1.28200000      -1.71830000
H        4.86100000       2.59520000      -1.42440000
H        4.60270000       1.22990000       0.65130000
H        3.92340000       2.82480000       0.92390000
H        2.28130000       1.16760000       1.74720000
H        2.44740000       0.21030000       0.29420000
