13
Properties=species:S:1:pos:R:3 gdb_11165=T pbc="F F F"
N       -0.04020000       1.28600000      -0.00800000
C       -0.02980000       0.02920000      -0.04310000
C       -1.23300000      -0.88200000      -0.15990000
O       -0.66760000      -2.14770000      -0.48260000
C        0.63460000      -2.14010000       0.05110000
O        1.07770000      -0.77590000       0.00810000
C        0.68790000      -2.65000000       1.42740000
C        0.72550000      -3.08590000       2.54560000
H        0.90350000       1.66100000       0.09530000
H       -1.78650000      -0.91270000       0.78840000
H       -1.90650000      -0.57750000      -0.96160000
H        1.27970000      -2.72710000      -0.60860000
H        0.76110000      -3.47070000       3.53560000
