18
Properties=species:S:1:pos:R:3 gdb_51064=T pbc="F F F"
N       -0.12130000       1.33460000      -0.01270000
C       -0.12970000       0.09510000      -0.23460000
O       -1.06350000      -0.68590000       0.36880000
C       -0.93920000      -2.04590000       0.19810000
C       -0.85830000      -2.95280000      -1.00330000
C        0.34090000      -3.70250000      -0.42640000
C       -0.11330000      -3.17880000       0.96570000
C       -1.46810000      -3.90190000       1.21120000
C       -2.00830000      -3.07780000       0.04400000
H        0.61910000       1.77890000      -0.55200000
H        0.53830000      -0.47050000      -0.89540000
H       -1.09320000      -2.72810000      -2.03570000
H        0.38400000      -4.79020000      -0.54940000
H        1.28770000      -3.25940000      -0.74800000
H        0.60140000      -3.03020000       1.77170000
H       -1.46710000      -4.99440000       1.13110000
H       -1.92870000      -3.59950000       2.15500000
H       -3.03330000      -2.91760000      -0.26360000
