18
Properties=species:S:1:pos:R:3 gdb_90569=T pbc="F F F"
C       -0.14660000       1.59540000       0.04590000
N        0.15250000       0.17230000       0.06410000
C        1.18990000      -0.38990000      -0.83730000
C        1.81680000      -1.13930000       0.34450000
C        2.23560000      -0.17570000       1.39690000
O        2.85050000       1.04300000       1.01400000
C        3.22160000       1.88070000       2.00320000
O        3.70590000       2.95110000       1.79130000
C        0.76260000      -0.43870000       1.23090000
H        0.73830000       2.24500000       0.11060000
H       -0.68500000       1.83730000      -0.87690000
H       -0.81090000       1.82820000       0.88490000
H        0.75940000      -1.04480000      -1.60110000
H        1.84540000       0.34750000      -1.31580000
H        2.14360000      -2.17050000       0.33210000
H        2.68620000      -0.62970000       2.27770000
H        3.03810000       1.46390000       3.01210000
H        0.15040000      -0.81200000       2.04740000
