13
Properties=species:S:1:pos:R:3 gdb_13744=T pbc="F F F"
N        0.94800000       0.20340000       0.70760000
C       -0.02660000       0.00430000      -0.21080000
O       -0.16120000       0.63430000      -1.24080000
C       -0.99760000      -1.10700000       0.13140000
N       -0.74840000      -1.91810000       1.32110000
C       -1.92220000      -1.03180000       1.31710000
C       -1.90510000       0.07160000       2.24830000
N       -1.91710000       0.95120000       2.99770000
H        1.57810000       0.97850000       0.58820000
H        0.99550000      -0.36800000       1.53510000
H       -1.42460000      -1.56750000      -0.75480000
H       -1.02820000      -2.88600000       1.18940000
H       -2.90600000      -1.47350000       1.18330000
