18
Properties=species:S:1:pos:R:3 gdb_51197=T pbc="F F F"
N       -0.14390000       1.24020000       0.01270000
C       -0.06240000      -0.01570000      -0.06750000
O       -1.15920000      -0.77530000       0.15420000
C       -0.98330000      -2.15870000       0.11490000
C       -0.26220000      -3.07220000       1.12080000
C       -0.88340000      -4.01480000       0.06530000
C       -2.17550000      -3.13550000      -0.08540000
C       -2.05590000      -3.09200000      -1.62300000
C       -0.59480000      -3.04140000      -1.12900000
H        0.76140000       1.65900000      -0.19120000
H        0.83200000      -0.60100000      -0.31440000
H        0.83060000      -3.02030000       1.15280000
H       -0.68320000      -3.11690000       2.12950000
H       -0.84580000      -5.10010000       0.01550000
H       -3.06140000      -3.18770000       0.54810000
H       -2.35790000      -3.99380000      -2.16350000
H       -2.43940000      -2.19630000      -2.11840000
H        0.33450000      -2.98990000      -1.69820000
