21
Properties=species:S:1:pos:R:3 gdb_78758=T pbc="F F F"
C        0.06410000       1.44150000       0.09320000
C       -0.00460000      -0.05460000       0.00560000
C       -1.25150000      -0.90920000      -0.23540000
C       -0.40200000      -2.12050000       0.23450000
C       -1.01790000      -3.35150000       0.83960000
C        0.58430000      -1.08350000       0.94150000
C        1.19390000      -0.90020000      -0.44130000
C        0.66650000      -2.25470000      -0.90050000
O        1.57980000      -3.31710000      -0.72180000
H        1.05110000       1.77540000       0.43110000
H       -0.12780000       1.90720000      -0.88060000
H       -0.67860000       1.82930000       0.79970000
H       -2.04280000      -0.66160000       0.48060000
H       -1.67720000      -0.95510000      -1.24660000
H       -1.72230000      -3.81380000       0.13760000
H       -0.25100000      -4.09690000       1.07280000
H       -1.56670000      -3.11850000       1.75810000
H        0.99630000      -0.99030000       1.93680000
H        2.14030000      -0.43940000      -0.69970000
H        0.28650000      -2.36220000      -1.92300000
H        2.05390000      -3.15090000       0.10220000
