20
Properties=species:S:1:pos:R:3 gdb_12551=T pbc="F F F"
C        0.43820000       1.65890000       0.00630000
C       -0.05430000       0.20280000      -0.06530000
C        0.48500000      -0.47560000      -1.33370000
C        0.09350000      -1.93950000      -1.52560000
O        0.86950000      -2.81590000      -0.73120000
C        0.42040000      -2.99990000       0.59060000
C        0.41070000      -1.80150000       1.50610000
C        0.22530000      -0.50790000       1.24040000
H        1.52800000       1.69640000       0.11430000
H        0.17100000       2.20990000      -0.90100000
H       -0.00030000       2.18510000       0.86030000
H       -1.15290000       0.24140000      -0.16420000
H        0.13270000       0.09640000      -2.20210000
H        1.58090000      -0.42500000      -1.34350000
H       -0.98270000      -2.09020000      -1.33420000
H        0.28580000      -2.23470000      -2.56300000
H       -0.59440000      -3.44430000       0.58730000
H        1.08600000      -3.76050000       1.01420000
H        0.52480000      -2.07700000       2.55430000
H        0.21910000       0.15920000       2.10230000
