19
Properties=species:S:1:pos:R:3 gdb_73093=T pbc="F F F"
O        0.11030000       1.38690000      -0.06550000
C        0.07400000      -0.02170000      -0.02520000
C        0.15170000      -0.66500000      -1.42050000
O       -0.98260000      -1.51110000      -1.13050000
C       -1.32440000      -0.69330000       0.02650000
C       -1.69650000      -1.44180000       1.26230000
C       -0.95110000      -1.37580000       2.36640000
C        0.37300000      -0.65190000       2.41450000
C        1.02180000      -0.61490000       1.01990000
H        0.11720000       1.72170000       0.83750000
H       -0.06240000       0.05720000      -2.21910000
H        1.04750000      -1.24350000      -1.67030000
H       -2.11090000       0.02710000      -0.24570000
H       -2.62780000      -2.00220000       1.24880000
H       -1.28290000      -1.87150000       3.27540000
H        0.23940000       0.36570000       2.81550000
H        1.04350000      -1.14910000       3.12390000
H        1.26050000      -1.64450000       0.73520000
H        1.95730000      -0.04520000       1.02290000
