16
Properties=species:S:1:pos:R:3 gdb_34616=T pbc="F F F"
N        0.01330000      -0.91370000       0.68750000
C       -0.06860000       0.19710000       0.37910000
C       -0.12020000       1.59040000       0.02160000
N       -1.22020000       2.23990000      -0.05140000
C       -0.86950000       3.63430000      -0.37300000
C        0.67480000       3.68800000      -0.35610000
C        1.44460000       3.97950000       0.95960000
C        2.01320000       2.53630000       0.86800000
N        1.08350000       2.24390000      -0.27740000
H       -1.27480000       3.88680000      -1.35910000
H       -1.34160000       4.30790000       0.35190000
H        1.09440000       4.18570000      -1.23270000
H        2.17460000       4.78960000       0.92550000
H        0.78410000       4.12940000       1.81750000
H        3.05450000       2.48080000       0.54410000
H        1.87240000       1.88520000       1.73410000
