17
Properties=species:S:1:pos:R:3 gdb_47530=T pbc="F F F"
O        0.02710000       0.03280000      -0.40770000
C        0.01350000       1.15150000       0.02970000
O       -1.16630000       1.71830000       0.37930000
C       -1.27110000       2.90270000       1.19460000
C       -0.65480000       4.17430000       0.60960000
C        0.84440000       4.00000000       0.32630000
C        1.16980000       3.18620000      -0.94430000
C        1.27980000       2.00840000       0.05190000
O        1.38610000       2.93130000       1.15650000
H       -2.34760000       3.03680000       1.32080000
H       -0.82740000       2.69700000       2.17110000
H       -1.17550000       4.48150000      -0.30440000
H       -0.81410000       4.96660000       1.35070000
H        1.39780000       4.93210000       0.46780000
H        0.41070000       3.12760000      -1.72570000
H        2.13630000       3.44530000      -1.37780000
H        2.13820000       1.33960000      -0.02040000
