22
Properties=species:S:1:pos:R:3 gdb_113788=T pbc="F F F"
C       -0.13700000       1.54530000       0.12630000
C        0.48560000       0.17800000      -0.17790000
C        0.88860000      -0.55520000       1.08270000
N       -0.17110000      -1.21770000       1.87300000
C        0.89250000      -2.03480000       1.26000000
C        0.40130000      -3.02530000       0.23710000
O       -0.84200000      -2.70000000      -0.31490000
C        1.36350000      -3.70520000      -0.68560000
C        0.71130000      -4.49260000       0.43720000
H        0.56000000       2.19110000       0.67320000
H       -0.41860000       2.06510000      -0.79430000
H       -1.03680000       1.43100000       0.73920000
H       -0.20990000      -0.44120000      -0.74830000
H        1.38060000       0.30510000      -0.80060000
H        1.64470000      -0.03130000       1.66990000
H       -0.03260000      -1.10150000       2.87160000
H        1.66370000      -2.43210000       1.91780000
H       -1.32170000      -2.25780000       0.40320000
H        1.01290000      -3.88990000      -1.69470000
H        2.41870000      -3.46440000      -0.60810000
H        1.32350000      -4.79590000       1.28090000
H       -0.07270000      -5.18900000       0.16390000
