20
Properties=species:S:1:pos:R:3 gdb_88559=T pbc="F F F"
C        3.05940000      -0.73620000       0.37490000
N        1.66390000      -1.15370000       0.32230000
C        1.22500000      -2.12700000       1.31120000
C        0.75040000      -0.71450000       1.39320000
C        1.15680000       0.21460000       2.48040000
C        1.96080000      -0.11110000       3.72920000
C        0.58390000       0.45250000       3.86830000
O        0.59290000       1.87190000       3.73020000
C        1.07100000       1.74150000       2.36480000
H        3.48900000      -0.70240000       1.38670000
H        3.65280000      -1.43330000      -0.22540000
H        3.15540000       0.25840000      -0.07320000
H        0.55880000      -2.90850000       0.95390000
H        1.94850000      -2.45680000       2.05520000
H       -0.24700000      -0.50430000       1.00590000
H        2.05280000      -1.16950000       3.94940000
H        2.81750000       0.49620000       4.01080000
H       -0.23640000      -0.00540000       4.40930000
H        2.00170000       2.29480000       2.19130000
H        0.30350000       2.07510000       1.65660000
