17
Properties=species:S:1:pos:R:3 gdb_82170=T pbc="F F F"
C       -0.09550000       1.51840000       0.06170000
C        0.15240000       0.04040000      -0.03150000
O       -0.52670000      -0.80410000       0.90830000
C        0.90830000      -0.77890000       0.93090000
C        1.53140000      -1.99480000       0.22830000
O        1.08210000      -3.22290000       0.75550000
C        1.16150000      -1.81080000      -1.25280000
O       -0.24610000      -1.93770000      -1.48700000
C        0.30930000      -0.62380000      -1.40310000
H        0.67050000       2.07640000      -0.48760000
H       -1.07070000       1.77440000      -0.36670000
H       -0.08330000       1.84460000       1.10430000
H        1.35110000      -0.38690000       1.84410000
H        2.62030000      -1.97840000       0.34660000
H        0.12160000      -3.20880000       0.64710000
H        1.80220000      -2.20920000      -2.03570000
H        0.25240000      -0.02300000      -2.30690000
