15
Properties=species:S:1:pos:R:3 gdb_51718=T pbc="F F F"
O        0.10470000       0.24480000      -0.78340000
C        0.11680000       1.29530000      -0.22040000
O        1.15190000       2.16310000      -0.32510000
C        0.98660000       3.43760000       0.31010000
C        2.35140000       4.11220000       0.33040000
C        2.34240000       4.91850000      -0.97240000
O        3.27140000       5.45980000      -1.50260000
C        0.89500000       4.89960000      -1.47270000
O        0.13830000       4.26530000      -0.44550000
H       -0.68760000       1.66200000       0.44410000
H        0.51330000       3.30210000       1.28640000
H        2.42680000       4.80640000       1.17370000
H        3.18730000       3.41430000       0.37170000
H        0.50830000       5.90960000      -1.63090000
H        0.83930000       4.34710000      -2.42000000
