19
Properties=species:S:1:pos:R:3 gdb_38617=T pbc="F F F"
C       -0.04440000       1.44930000      -0.15170000
C        1.30720000       0.78050000       0.00960000
O        2.14600000       0.39390000      -1.05500000
C        1.55130000      -0.76560000      -1.59930000
C        1.07780000      -1.97020000      -0.75880000
C        1.04800000      -2.03200000       0.78350000
C       -0.05650000      -1.01350000       1.21230000
C        0.05470000      -0.04490000       0.04870000
C        0.11940000      -0.88950000      -1.22220000
H       -0.36040000       2.08540000       0.66970000
H       -0.36390000       1.78800000      -1.13190000
H        1.85690000       0.98040000       0.92380000
H        1.92710000      -0.97500000      -2.59470000
H        1.12960000      -2.91240000      -1.29560000
H        0.82230000      -3.04970000       1.11530000
H        2.01350000      -1.75760000       1.22190000
H       -1.03730000      -1.50050000       1.26250000
H        0.14170000      -0.55250000       2.18460000
H       -0.72880000      -1.00830000      -1.88790000
