18
Properties=species:S:1:pos:R:3 gdb_105298=T pbc="F F F"
C       -0.48000000       1.43820000      -0.27840000
C       -0.02050000      -0.02470000      -0.22080000
C        0.86570000      -0.44940000      -1.37680000
C        0.84090000      -1.89670000      -1.84670000
N        0.30690000      -0.85470000      -2.67140000
C       -1.02350000      -0.77550000      -3.06340000
O       -1.70780000      -1.72640000      -3.34570000
C        2.20050000       0.22620000      -1.51170000
O        2.69400000       0.92470000      -0.66440000
H        0.37590000       2.11640000      -0.27480000
H       -1.07640000       1.64070000      -1.17390000
H       -1.10090000       1.67230000       0.59100000
H        0.54960000      -0.18690000       0.70050000
H       -0.88810000      -0.69290000      -0.18160000
H        1.75310000      -2.37130000      -2.19910000
H        0.13460000      -2.55500000      -1.34730000
H       -1.36150000       0.27150000      -3.16390000
H        2.71280000       0.00630000      -2.47440000
