16
Properties=species:S:1:pos:R:3 gdb_71463=T pbc="F F F"
C       -0.03210000       1.54440000       0.08550000
C       -0.10720000       0.05870000      -0.05330000
C        0.40340000      -0.73200000      -1.28980000
C       -0.48450000      -1.86850000      -0.77890000
C       -0.85870000      -3.07700000      -1.42400000
N       -1.16230000      -4.06610000      -1.94490000
C       -0.42940000      -1.71570000       0.77940000
O        0.49160000      -0.68570000       1.06380000
C       -1.37650000      -0.88880000       0.00360000
H        1.01520000       1.86320000       0.11210000
H       -0.52020000       2.03330000      -0.76250000
H       -0.51580000       1.87300000       1.00910000
H        0.01760000      -0.32020000      -2.22490000
H        1.48230000      -0.89830000      -1.34780000
H       -0.55170000      -2.54580000       1.46150000
H       -2.44790000      -0.74680000       0.00450000
