12
Properties=species:S:1:pos:R:3 gdb_132326=T pbc="F F F"
O        0.05620000       1.30380000       0.00730000
C       -0.03410000      -0.01820000       0.00100000
C       -1.21430000      -0.69080000       0.00370000
C       -1.06140000      -2.10080000      -0.00440000
F       -2.17890000      -2.80650000      -0.00220000
N        0.04340000      -2.75810000      -0.01340000
C        1.22300000      -2.05700000      -0.01590000
N        2.40800000      -2.48700000      -0.02440000
O        1.14330000      -0.62690000      -0.00820000
H        0.99410000       1.54440000       0.00360000
H       -2.16930000      -0.19230000       0.01120000
H        2.38390000      -3.50470000      -0.02960000
