21
Properties=species:S:1:pos:R:3 gdb_115908=T pbc="F F F"
O       -0.33060000       1.58940000       0.21640000
C       -0.09770000       0.19820000       0.38960000
C       -1.32050000      -0.55100000      -0.12580000
C       -1.58680000      -0.20260000      -1.61160000
O       -2.28920000      -1.22310000      -2.32030000
C       -1.99080000      -2.53880000      -1.87910000
C       -2.50420000      -2.73990000      -0.42900000
C       -1.16540000      -2.07870000       0.00500000
C       -0.55120000      -2.66120000      -1.30550000
H        0.46330000       2.06520000       0.47630000
H        0.79780000      -0.12680000      -0.16630000
H        0.06550000      -0.05020000       1.45070000
H       -2.17830000      -0.23690000       0.48280000
H       -2.18090000       0.70800000      -1.70610000
H       -0.62410000      -0.00940000      -2.10820000
H       -2.32100000      -3.21490000      -2.67030000
H       -3.43820000      -2.23660000      -0.16580000
H       -2.55280000      -3.79640000      -0.15170000
H       -0.72640000      -2.36530000       0.96500000
H       -0.27120000      -3.71050000      -1.18550000
H        0.26040000      -2.12860000      -1.80690000
