22
Properties=species:S:1:pos:R:3 gdb_93858=T pbc="F F F"
C        0.61240000       1.69450000       0.00270000
C        0.11270000       0.24650000       0.11950000
C        0.52780000      -0.63180000      -1.08440000
C        1.95080000      -1.15210000      -0.74820000
C        2.12470000      -1.00300000       0.78220000
O        3.16380000      -0.04720000       1.00130000
C        0.76300000      -0.51030000       1.27450000
C        0.46350000      -0.25970000       2.70140000
N       -0.01460000      -1.49620000       2.05030000
H        1.70190000       1.72880000      -0.07240000
H        0.18510000       2.17960000      -0.88120000
H        0.32170000       2.28170000       0.88030000
H       -0.97800000       0.26110000       0.23960000
H       -0.16450000      -1.47560000      -1.17300000
H        0.49320000      -0.08660000      -2.03200000
H        2.08700000      -2.18650000      -1.07160000
H        2.72770000      -0.55570000      -1.23260000
H        2.36990000      -1.95310000       1.27310000
H        3.20410000       0.13000000       1.94710000
H        1.22110000      -0.41390000       3.46750000
H       -0.25770000       0.51730000       2.94400000
H       -1.00460000      -1.40130000       1.83220000
