21
Properties=species:S:1:pos:R:3 gdb_115603=T pbc="F F F"
C        0.02480000       1.40770000      -0.02560000
O       -0.06120000       0.05960000       0.38710000
C       -1.30520000      -0.57070000       0.17330000
C       -2.43800000       0.04920000       0.98450000
C       -1.66950000      -0.89870000      -1.30120000
O       -1.75530000      -2.30820000      -0.99860000
C       -1.19030000      -2.10810000       0.32760000
C        0.19650000      -2.73090000       0.39290000
O        0.10540000      -4.10850000       0.07540000
H        1.07330000       1.69900000       0.06980000
H       -0.27960000       1.53700000      -1.07500000
H       -0.58170000       2.07850000       0.59760000
H       -2.66330000       1.06890000       0.65760000
H       -3.34950000      -0.54430000       0.86960000
H       -2.17150000       0.07590000       2.04590000
H       -2.61870000      -0.50710000      -1.68340000
H       -0.86540000      -0.67620000      -2.01400000
H       -1.83820000      -2.55700000       1.08990000
H        0.87890000      -2.19910000      -0.28360000
H        0.60380000      -2.65430000       1.40580000
H       -0.37910000      -4.15000000      -0.75870000
