17
Properties=species:S:1:pos:R:3 gdb_24140=T pbc="F F F"
C        0.18630000       0.97910000       1.20260000
C        1.13390000       1.03600000       0.01990000
C       -0.12240000       0.23700000      -0.06690000
O        0.04510000      -1.15940000      -0.09110000
C       -1.01390000      -1.86080000       0.37070000
C       -2.21240000      -1.55300000       0.96080000
N       -2.91390000      -2.71820000       1.21610000
C       -2.15650000      -3.69510000       0.79170000
N       -0.97820000      -3.22850000       0.26250000
H        0.49220000       0.38300000       2.05430000
H       -0.40680000       1.85360000       1.44540000
H        1.20180000       1.94930000      -0.55960000
H        2.05860000       0.47640000       0.10060000
H       -0.94020000       0.57980000      -0.69680000
H       -2.60280000      -0.58290000       1.21850000
H       -2.38630000      -4.74890000       0.83380000
H       -0.22550000      -3.75810000      -0.14400000
