17
Properties=species:S:1:pos:R:3 gdb_13860=T pbc="F F F"
N        0.75380000      -0.24730000       0.28700000
C       -0.21910000       0.27760000      -0.49730000
O       -0.03870000       1.12850000      -1.34880000
C       -1.62670000      -0.28310000      -0.22360000
C       -2.28130000      -0.83850000      -1.49940000
C       -1.95790000      -2.33690000      -1.39830000
C       -2.05250000      -2.56880000       0.11090000
O       -1.59410000      -1.35700000       0.72490000
H        1.68830000       0.11920000       0.22230000
H        0.50320000      -0.91300000       0.99840000
H       -2.20760000       0.54440000       0.20090000
H       -3.36320000      -0.67790000      -1.46820000
H       -1.88460000      -0.34940000      -2.38930000
H       -2.64380000      -2.96950000      -1.96610000
H       -0.94000000      -2.53390000      -1.75030000
H       -3.09040000      -2.76280000       0.41860000
H       -1.43040000      -3.39380000       0.47150000
