20
Properties=species:S:1:pos:R:3 gdb_95720=T pbc="F F F"
O       -0.07990000       1.46780000       0.00220000
C        0.02420000       0.04920000      -0.00870000
C        0.88360000      -0.44360000       1.16210000
C        1.07220000      -1.96710000       1.20940000
N       -0.08660000      -2.70280000       1.68820000
C       -1.32730000      -2.79150000       1.11620000
O       -2.20800000      -3.46140000       1.62500000
C       -1.54480000      -2.00040000      -0.16840000
C       -1.41220000      -0.47370000      -0.00880000
H        0.80970000       1.83550000       0.00830000
H        0.50480000      -0.28660000      -0.94600000
H        1.87680000       0.01860000       1.07360000
H        0.44720000      -0.09670000       2.10560000
H        1.38080000      -2.33140000       0.21870000
H        1.89400000      -2.20580000       1.88920000
H        0.00130000      -3.23020000       2.54350000
H       -0.85470000      -2.35500000      -0.94610000
H       -2.55510000      -2.25360000      -0.49230000
H       -1.91550000      -0.14390000       0.90760000
H       -1.92820000       0.01640000      -0.84020000
