19
Properties=species:S:1:pos:R:3 gdb_47821=T pbc="F F F"
O        0.14380000      -0.01190000       0.21590000
C        0.02960000       1.18960000       0.06660000
N       -1.18300000       1.81860000       0.00420000
C       -1.36680000       3.26040000      -0.10800000
C       -0.94160000       4.04330000       1.15180000
C        0.36040000       3.50220000       1.75470000
N        1.38150000       3.32260000       0.72070000
C        2.28310000       2.18270000       0.91280000
C        1.21820000       2.12190000      -0.11520000
H       -1.98300000       1.21950000       0.14240000
H       -0.79770000       3.62650000      -0.96840000
H       -2.42040000       3.44460000      -0.33230000
H       -0.82450000       5.09660000       0.87480000
H       -1.72500000       3.99250000       1.91640000
H        0.75120000       4.20240000       2.50030000
H        0.14650000       2.55980000       2.28650000
H        3.31650000       2.34130000       0.61950000
H        2.14670000       1.56720000       1.80000000
H        1.49040000       2.26680000      -1.16010000
