17
Properties=species:S:1:pos:R:3 gdb_76009=T pbc="F F F"
C       -0.13380000       1.55440000       0.02290000
C        0.01520000       0.05020000       0.05650000
C        1.33940000      -0.64760000      -0.24070000
C        2.54020000       0.10210000      -0.43080000
C        3.55570000       0.73590000      -0.55970000
C        0.71630000      -0.65310000       1.19590000
N        1.26770000       0.10030000       2.28690000
C        0.17270000      -1.92670000       1.60940000
N       -0.24580000      -2.96020000       1.91680000
H        0.80920000       2.07080000       0.21750000
H       -0.47130000       1.86950000      -0.96910000
H       -0.87370000       1.88850000       0.75620000
H       -0.84710000      -0.48760000      -0.32490000
H        1.27640000      -1.58150000      -0.79020000
H        4.45510000       1.28390000      -0.69710000
H        2.05970000      -0.39520000       2.68700000
H        1.61870000       0.99220000       1.95730000
