16
Properties=species:S:1:pos:R:3 gdb_84065=T pbc="F F F"
C       -0.02520000       1.47680000       0.04100000
N        0.00010000       0.03050000       0.01220000
C       -1.11560000      -0.81280000       0.02880000
C       -0.82040000      -2.13170000      -0.00300000
C       -1.74530000      -3.30370000       0.00190000
C        0.64400000      -2.22130000      -0.04600000
O        1.36500000      -3.18830000      -0.08380000
C        1.15560000      -0.73360000      -0.03370000
O        2.28860000      -0.32730000      -0.05770000
H        1.01150000       1.81710000       0.01790000
H       -0.55390000       1.88380000      -0.82800000
H       -0.50280000       1.84930000       0.95380000
H       -2.09860000      -0.35800000       0.06470000
H       -1.60470000      -3.92060000      -0.89240000
H       -1.55400000      -3.95310000       0.86330000
H       -2.79140000      -2.98670000       0.03800000
