17
Properties=species:S:1:pos:R:3 gdb_29755=T pbc="F F F"
C       -0.41960000       1.62060000      -0.27330000
C        0.01200000       0.19240000      -0.01240000
C        0.80370000      -0.56220000      -1.18880000
O        0.98600000       0.11350000      -2.40050000
C        1.94030000      -0.63170000      -0.18070000
N        3.09670000      -1.11270000       0.21770000
C        3.13500000      -0.73110000       1.54670000
C        1.99100000      -0.05270000       1.93990000
N        1.25510000       0.01940000       0.78590000
H        0.40630000       2.21950000      -0.66650000
H       -1.22870000       1.63080000      -1.00950000
H       -0.78220000       2.09550000       0.64330000
H       -0.81030000      -0.40600000       0.39290000
H        0.34840000      -1.52480000      -1.43700000
H        1.66610000       0.78380000      -2.27480000
H        3.99510000      -0.95630000       2.16050000
H        1.69610000       0.38120000       2.88000000
