14
Properties=species:S:1:pos:R:3 gdb_131357=T pbc="F F F"
O        0.07330000       1.31560000      -0.03390000
C        0.05980000      -0.02470000      -0.03280000
N        0.00190000      -0.71130000      -1.15620000
N        0.01050000      -1.99850000      -0.67930000
C        0.07120000      -1.98690000       0.65790000
N        0.09600000      -3.11220000       1.45760000
C        0.06330000      -4.41000000       1.01640000
N        0.00420000      -4.70860000      -0.22330000
N        0.10480000      -0.74630000       1.12320000
H        0.11790000       1.59120000       0.88890000
H       -0.02410000      -2.82160000      -1.26370000
H        0.14310000      -2.92700000       2.44610000
H        0.09380000      -5.12500000       1.84390000
H       -0.01170000      -5.71570000      -0.35390000
