18
Properties=species:S:1:pos:R:3 gdb_31798=T pbc="F F F"
C       -0.03530000       1.49860000       0.07540000
C        0.01780000      -0.00610000       0.02440000
N       -0.06160000      -0.56640000      -1.19070000
C       -0.01730000      -1.89580000      -1.27380000
C        0.09770000      -2.75520000      -0.18070000
C        0.11610000      -4.25750000      -0.34990000
O        1.01300000      -4.91110000       0.53610000
C        0.18980000      -2.16260000       1.07870000
C        0.14980000      -0.77890000       1.18230000
H        0.78550000       1.92940000      -0.50700000
H       -0.96640000       1.86210000      -0.37120000
H        0.03000000       1.87220000       1.10020000
H       -0.07520000      -2.31040000      -2.28000000
H       -0.86900000      -4.67870000      -0.11620000
H        0.32660000      -4.50810000      -1.40110000
H        1.89400000      -4.55950000       0.36870000
H        0.30070000      -2.78770000       1.95870000
H        0.22040000      -0.29560000       2.15100000
