14
Properties=species:S:1:pos:R:3 gdb_28658=T pbc="F F F"
N       -0.03860000       1.38000000       0.13310000
C        0.00780000       0.01230000       0.05400000
N       -1.15690000      -0.64440000       0.04410000
C       -1.09490000      -1.97270000       0.01950000
C        0.11400000      -2.67790000      -0.00420000
N        1.28750000      -2.00860000      -0.00250000
C        1.23320000      -0.69220000       0.02810000
C        0.13030000      -4.10230000      -0.03390000
C        0.10660000      -5.30580000      -0.05840000
H        0.76610000       1.90310000      -0.17100000
H       -0.93430000       1.79350000      -0.07530000
H       -2.03950000      -2.50960000       0.01270000
H        2.17950000      -0.15400000       0.03290000
H        0.09990000      -6.36740000      -0.08000000
