21
Properties=species:S:1:pos:R:3 gdb_36086=T pbc="F F F"
C       -0.07230000      -1.19880000      -0.17770000
C       -0.04930000      -0.00490000      -0.03870000
C        0.00630000       1.44540000       0.12070000
C        1.42110000       2.00600000       0.04240000
C        2.27290000       1.94740000      -1.26240000
C        3.05660000       3.09580000      -0.56440000
C        1.68340000       3.54290000       0.01250000
C        3.68690000       2.36710000       0.63910000
C        2.44420000       1.53790000       1.10100000
H       -0.10510000      -2.25310000      -0.29780000
H       -0.61770000       1.91760000      -0.64950000
H       -0.44020000       1.72270000       1.08600000
H        2.80250000       1.01770000      -1.48960000
H        1.71530000       2.28810000      -2.13880000
H        3.69110000       3.78130000      -1.12650000
H        1.06230000       4.05740000      -0.72580000
H        1.67090000       4.08760000       0.96240000
H        4.53040000       1.73490000       0.34680000
H        4.03910000       3.06170000       1.40750000
H        2.12250000       1.78760000       2.11730000
H        2.60750000       0.45810000       1.05720000
