19
Properties=species:S:1:pos:R:3 gdb_94577=T pbc="F F F"
O        0.11800000       1.26370000      -0.39250000
C        0.06540000      -0.08810000      -0.00340000
C       -0.01070000      -0.40610000       1.50770000
O       -1.29430000      -1.04450000       1.34680000
C       -1.36310000      -0.68010000      -0.05510000
C       -2.49180000       0.28410000      -0.35010000
C       -2.75400000       0.54460000      -1.84910000
O       -3.99550000      -0.18870000      -1.80710000
C       -3.89820000      -0.35500000      -0.37610000
H        1.03600000       1.55060000      -0.39340000
H        0.80700000      -0.68900000      -0.54280000
H        0.74300000      -1.09380000       1.90920000
H       -0.06530000       0.49060000       2.13850000
H       -1.46340000      -1.57640000      -0.68250000
H       -2.39540000       1.17850000       0.26490000
H       -2.90270000       1.59850000      -2.11420000
H       -2.03710000       0.10200000      -2.55240000
H       -3.95730000      -1.40800000      -0.07530000
H       -4.67330000       0.21070000       0.15620000
