15
Properties=species:S:1:pos:R:3 gdb_1992=T pbc="F F F"
N       -0.21890000       1.33970000       0.13350000
C       -0.19420000      -0.03580000       0.35590000
O        0.57010000      -0.55680000       1.14430000
N       -1.15620000      -0.73290000      -0.34200000
C       -1.20850000      -2.16150000      -0.32620000
C       -1.69020000      -2.85660000       0.91660000
C       -2.56840000      -2.81160000      -0.30760000
H        0.60940000       1.79420000       0.48670000
H       -0.51110000       1.67410000      -0.77250000
H       -1.70620000      -0.25170000      -1.03480000
H       -0.42690000      -2.66430000      -0.89210000
H       -1.21390000      -3.79220000       1.18470000
H       -1.95660000      -2.22540000       1.75480000
H       -3.43330000      -2.15740000      -0.28070000
H       -2.70570000      -3.71520000      -0.89050000
