16
Properties=species:S:1:pos:R:3 gdb_5629=T pbc="F F F"
N        0.07440000       1.42220000       0.15070000
C        0.03360000       0.01330000       0.02860000
C       -1.07550000      -0.80370000      -0.00230000
N       -0.62760000      -2.10850000      -0.03250000
C        0.73950000      -2.13010000      -0.03410000
C        1.18740000      -0.82940000       0.00880000
C        2.61040000      -0.37580000       0.05700000
O        3.45680000      -1.51650000       0.01790000
H        0.69370000       1.84280000      -0.53410000
H       -0.84300000       1.83470000       0.03080000
H       -2.12750000      -0.56790000       0.00340000
H       -1.21830000      -2.91920000      -0.05500000
H        1.29640000      -3.05100000      -0.05920000
H        2.82930000       0.29850000      -0.79200000
H        2.78310000       0.21730000       0.97140000
H        4.36440000      -1.21420000       0.10870000
