18
Properties=species:S:1:pos:R:3 gdb_110492=T pbc="F F F"
O        0.30470000       0.59630000      -0.98520000
C       -0.06370000       0.40790000       0.37660000
C       -1.40230000      -0.30760000       0.37030000
C       -1.52740000      -1.75440000      -0.07410000
C       -1.31370000      -2.77060000       1.02270000
C       -0.60800000      -2.37900000       2.27340000
C       -1.13250000      -1.23210000       2.70900000
C       -2.13590000      -0.76420000       1.68570000
N       -2.59740000      -2.03540000       0.95160000
H        1.19390000       0.96140000      -1.00760000
H        0.68760000      -0.18580000       0.91370000
H       -0.16210000       1.37390000       0.90090000
H       -2.10830000       0.28220000      -0.22180000
H       -1.62790000      -2.07570000      -1.10610000
H       -1.36470000      -3.81320000       0.72290000
H        0.19960000      -2.94810000       2.71490000
H       -0.81260000      -0.64600000       3.56120000
H       -2.95020000      -0.13450000       2.04170000
