15
Properties=species:S:1:pos:R:3 gdb_42211=T pbc="F F F"
O        0.04940000      -0.08840000      -0.10310000
C       -0.03660000       1.12950000      -0.05460000
C        1.20670000       1.94370000      -0.09840000
N        2.17590000       2.57430000      -0.13090000
C       -1.24560000       1.89960000       0.03180000
C       -2.48730000       1.34020000       0.09140000
N       -3.47180000       2.25940000       0.20500000
C       -2.93150000       3.61310000      -0.01390000
C       -1.39680000       3.41240000       0.13760000
H       -2.71380000       0.28220000       0.07900000
H       -4.43480000       2.03800000       0.01230000
H       -3.19460000       3.96440000      -1.01980000
H       -3.34440000       4.31780000       0.71160000
H       -1.04960000       3.77940000       1.11060000
H       -0.84000000       3.96120000      -0.62570000
