20
Properties=species:S:1:pos:R:3 gdb_58485=T pbc="F F F"
C        0.06750000       1.45370000      -0.36500000
C        0.04500000       0.00250000       0.13640000
C        0.64230000      -0.11930000       1.54700000
C       -1.37270000      -0.55290000       0.08690000
O       -2.30850000       0.09230000       0.89980000
C       -1.94690000      -1.05800000      -1.18830000
C       -1.60920000      -2.06450000      -0.08510000
C       -0.51810000      -2.97840000      -0.24520000
N        0.37520000      -3.70590000      -0.36330000
H        1.08320000       1.85870000      -0.33070000
H       -0.29080000       1.52320000      -1.39680000
H       -0.57540000       2.08620000       0.25440000
H        0.65420000      -0.61160000      -0.53720000
H        0.09340000       0.49560000       2.27150000
H        0.63900000      -1.15630000       1.89620000
H        1.67770000       0.23260000       1.55540000
H       -2.01600000       0.01530000       1.81510000
H       -3.00160000      -0.88650000      -1.36620000
H       -1.31680000      -1.06060000      -2.07000000
H       -2.45570000      -2.45640000       0.46800000
