16
Properties=species:S:1:pos:R:3 gdb_49925=T pbc="F F F"
O       -0.80340000       0.44270000       0.12790000
C       -0.23690000       1.48290000      -0.07200000
C        1.26750000       1.69400000       0.05820000
C        1.84740000       2.51350000      -1.12890000
C        2.04730000       3.96880000      -0.59240000
C        1.95380000       3.79810000       0.91510000
C        1.54930000       2.57810000       1.25520000
C        3.30720000       4.57440000      -1.02950000
N        4.30340000       5.04960000      -1.37210000
H       -0.79700000       2.40420000      -0.36060000
H        1.72300000       0.70380000       0.15180000
H        2.81070000       2.09270000      -1.42170000
H        1.20350000       2.49810000      -2.01190000
H        1.24250000       4.62830000      -0.94440000
H        2.18930000       4.60680000       1.59570000
H        1.38130000       2.23510000       2.26940000
