17
Properties=species:S:1:pos:R:3 gdb_77730=T pbc="F F F"
O       -0.03990000       1.35500000      -0.08010000
C       -0.04680000      -0.03160000       0.02070000
C       -0.48230000      -0.74890000       1.28330000
C       -1.58310000      -0.03330000       2.09060000
C       -2.48680000      -0.02840000       0.80690000
C       -1.35950000      -0.75000000       0.04670000
O       -1.38020000      -2.06580000      -0.42870000
C       -0.93470000      -2.86330000       0.67290000
O       -0.03860000      -2.06560000       1.45480000
H        0.72150000       1.68570000       0.40930000
H        0.72500000      -0.56970000      -0.52720000
H       -1.97960000      -0.66990000       2.88360000
H       -1.31150000       0.93670000       2.51340000
H       -3.37150000      -0.65860000       0.91180000
H       -2.77850000       0.94370000       0.40550000
H       -1.79390000      -3.17960000       1.28540000
H       -0.39470000      -3.73210000       0.28810000
