21
Properties=species:S:1:pos:R:3 gdb_67706=T pbc="F F F"
C       -0.01930000       1.47490000       0.00480000
C       -0.00270000      -0.03030000       0.00120000
C        0.59100000      -0.91320000      -1.07700000
C        1.46230000      -2.00370000      -0.45010000
C        1.49050000      -1.65010000       1.05830000
C        0.19630000      -0.85170000       1.29160000
O       -0.92700000      -1.73280000       1.40440000
C       -1.49220000      -1.96410000       0.11480000
C       -0.90850000      -0.91380000      -0.81130000
H        0.92660000       1.88730000       0.37530000
H       -0.17400000       1.86680000      -1.00570000
H       -0.82320000       1.86560000       0.63940000
H        0.90550000      -0.47470000      -2.01900000
H        1.05130000      -3.00550000      -0.61990000
H        2.46480000      -2.00000000      -0.88680000
H        1.55230000      -2.51910000       1.71830000
H        2.35050000      -1.00300000       1.26930000
H        0.22440000      -0.24580000       2.20180000
H       -1.27380000      -2.99100000      -0.21540000
H       -2.58240000      -1.86460000       0.18800000
H       -1.55200000      -0.48710000      -1.57360000
