17
Properties=species:S:1:pos:R:3 gdb_77749=T pbc="F F F"
C       -0.02580000       1.54810000      -0.02880000
C        0.08470000       0.04510000       0.12960000
C        1.34950000      -0.77750000      -0.17790000
C        2.54110000      -0.03650000       0.33610000
O        3.57810000       0.34780000      -0.13130000
C        1.98670000      -0.03660000       1.78880000
O        1.83570000       1.16260000       2.50990000
C        0.71940000      -0.70250000       1.25000000
O        0.09800000      -1.74720000       1.90130000
H        0.82150000       2.06780000       0.41920000
H       -0.08300000       1.81670000      -1.08870000
H       -0.93450000       1.91640000       0.45980000
H       -0.78390000      -0.50100000      -0.23850000
H        1.32860000      -1.57310000      -0.91220000
H        2.55470000      -0.79090000       2.35790000
H        2.71080000       1.55550000       2.60720000
H       -0.68400000      -1.40770000       2.34970000
