19
Properties=species:S:1:pos:R:3 gdb_22059=T pbc="F F F"
C        0.29380000       1.03220000       0.63160000
C        0.00320000      -0.38200000       0.15490000
O        0.75220000      -1.31310000       0.39680000
N       -1.14550000      -0.52910000      -0.57070000
C       -1.56700000      -1.80980000      -1.12310000
C       -2.67280000      -2.45100000      -0.31870000
C       -2.41050000      -2.86940000       1.10190000
N       -3.78660000      -2.59250000      -0.93010000
O       -4.75220000      -3.19670000      -0.11100000
H        1.23080000       1.36790000       0.17880000
H       -0.49330000       1.75130000       0.39020000
H        0.44320000       1.01390000       1.71400000
H       -1.75760000       0.26090000      -0.69040000
H       -1.90560000      -1.67780000      -2.15390000
H       -0.67820000      -2.44760000      -1.11430000
H       -1.36960000      -2.69100000       1.37460000
H       -3.06620000      -2.32790000       1.79190000
H       -2.64310000      -3.93190000       1.22660000
H       -5.51130000      -3.25450000      -0.70070000
