19
Properties=species:S:1:pos:R:3 gdb_118828=T pbc="F F F"
C        0.15270000       1.34180000       0.07900000
O        0.00920000      -0.05150000       0.24780000
C       -1.27730000      -0.52940000      -0.10460000
C       -1.19160000      -2.03610000      -0.04550000
O       -0.18010000      -2.54320000      -0.86390000
C       -1.51900000      -2.78120000       1.20620000
C       -2.43060000      -2.91520000      -0.02000000
C       -3.79770000      -2.34970000       0.02280000
O       -4.73640000      -2.78570000      -0.59670000
H        1.17480000       1.60060000       0.36410000
H       -0.01640000       1.64360000      -0.96580000
H       -0.54780000       1.90020000       0.71800000
H       -2.04150000      -0.13530000       0.58150000
H       -1.53550000      -0.20820000      -1.12640000
H        0.59830000      -2.00270000      -0.67430000
H       -0.91330000      -3.64500000       1.45060000
H       -1.91230000      -2.22900000       2.05430000
H       -2.33740000      -3.82220000      -0.60680000
H       -3.92120000      -1.47370000       0.70270000
