17
Properties=species:S:1:pos:R:3 gdb_128502=T pbc="F F F"
C        0.13800000       1.48590000       0.09350000
O        0.06080000       0.07020000       0.08880000
C        0.50680000      -0.54140000      -1.03360000
C        0.55800000      -1.89460000      -1.22100000
C        0.14840000      -3.06220000      -0.38220000
N       -1.02480000      -3.80960000      -0.85740000
O        1.04990000      -2.13890000      -2.45620000
N        1.33080000      -0.94630000      -3.10180000
C        1.00790000      -0.00000000      -2.25070000
H        1.17390000       1.83100000      -0.02050000
H       -0.47620000       1.92350000      -0.70440000
H       -0.24540000       1.81260000       1.06110000
H        0.98520000      -3.76580000      -0.30420000
H       -0.05480000      -2.69230000       0.62720000
H       -1.81620000      -3.17670000      -0.93840000
H       -0.84400000      -4.14830000      -1.79860000
H        1.14520000       1.03220000      -2.53650000
