15
Properties=species:S:1:pos:R:3 gdb_65875=T pbc="F F F"
C        0.00500000       1.66010000       0.15290000
C        0.07160000       0.13880000       0.07390000
C        0.74960000      -0.41500000      -1.18900000
O        1.58570000      -1.46190000      -0.69030000
C        1.71700000      -1.35580000       0.65400000
O        2.43420000      -2.01970000       1.32760000
O        0.90120000      -0.36970000       1.13180000
C       -1.33550000      -0.44000000       0.27970000
O       -2.07530000      -0.72720000      -0.62190000
H        1.01500000       2.07680000       0.11730000
H       -0.57520000       2.05180000      -0.68780000
H       -0.47010000       1.98280000       1.08360000
H        0.02360000      -0.82820000      -1.89060000
H        1.37110000       0.33460000      -1.68890000
H       -1.61740000      -0.55090000       1.34840000
