16
Properties=species:S:1:pos:R:3 gdb_22657=T pbc="F F F"
O       -0.45810000       1.01240000       0.82690000
N       -0.16910000      -0.28100000       0.35830000
C       -1.20360000      -0.80950000      -0.15360000
C       -2.59860000      -0.23750000      -0.25660000
O       -3.35900000      -1.22550000      -0.94950000
C       -2.73750000      -2.48080000      -0.77910000
C       -1.21360000      -2.19740000      -0.74830000
C       -3.16770000      -3.18100000       0.50620000
O       -3.79430000      -2.65860000       1.38830000
H        0.38430000       1.29030000       1.20190000
H       -3.00860000      -0.04610000       0.74320000
H       -2.62760000       0.69620000      -0.82700000
H       -3.01950000      -3.12100000      -1.62360000
H       -0.81610000      -2.18700000      -1.76840000
H       -0.63050000      -2.91370000      -0.16490000
H       -2.82570000      -4.24150000       0.57630000
