20
Properties=species:S:1:pos:R:3 gdb_14308=T pbc="F F F"
C        0.03700000       1.56750000      -0.00030000
C        0.06460000       0.04060000       0.00050000
C        0.80900000      -0.58900000      -1.20500000
C        1.27040000      -1.96550000      -0.72560000
C        2.54280000      -2.02720000       0.06680000
O        3.39260000      -0.91750000       0.01980000
C        1.22180000      -1.96670000       0.80080000
C        0.73490000      -0.58950000       1.24860000
H        1.05500000       1.97340000       0.02680000
H       -0.45330000       1.95810000      -0.89860000
H       -0.50320000       1.95970000       0.86840000
H       -0.96960000      -0.32940000      -0.02840000
H        0.16120000      -0.67050000      -2.08250000
H        1.66730000       0.02970000      -1.48780000
H        0.99010000      -2.84250000      -1.29840000
H        3.06220000      -2.98590000       0.07780000
H        3.80380000      -0.81960000       0.88520000
H        0.90730000      -2.84410000       1.35550000
H        1.57290000       0.03740000       1.57930000
H        0.04000000      -0.66500000       2.08990000
