23
Properties=species:S:1:pos:R:3 gdb_122685=T pbc="F F F"
O       -0.06180000       1.48960000      -0.06350000
C        0.03520000       0.07360000      -0.08830000
C       -1.37050000      -0.49620000       0.04880000
C       -1.39460000      -2.02890000       0.04140000
C       -2.80150000      -2.62370000       0.12460000
C       -2.85610000      -4.16100000       0.09770000
C       -4.23100000      -4.45130000       0.70910000
O       -4.52530000      -3.36310000       1.58680000
C       -3.55140000      -2.33580000       1.43500000
H        0.82430000       1.85390000      -0.14450000
H        0.48840000      -0.27920000      -1.02980000
H        0.66870000      -0.29740000       0.73460000
H       -1.80790000      -0.10900000       0.97660000
H       -1.98440000      -0.10530000      -0.77210000
H       -0.90670000      -2.39490000      -0.87190000
H       -0.79740000      -2.41200000       0.88120000
H       -3.40290000      -2.23790000      -0.71010000
H       -2.74040000      -4.58130000      -0.90470000
H       -2.05860000      -4.57170000       0.72870000
H       -5.00760000      -4.50960000      -0.06780000
H       -4.25680000      -5.38810000       1.27800000
H       -2.85030000      -2.34930000       2.28690000
H       -4.06440000      -1.36840000       1.43910000
