15
Properties=species:S:1:pos:R:3 gdb_61377=T pbc="F F F"
C       -0.06210000       1.56950000      -0.18800000
C       -0.01360000       0.05710000       0.03660000
O       -1.37590000      -0.45500000       0.16900000
C       -1.88260000      -0.46640000       1.39970000
O       -1.33920000      -0.09140000       2.41000000
C       -3.30930000      -1.03200000       1.43800000
O       -3.93240000      -1.37760000       0.47570000
C        0.61130000      -0.66180000      -1.06430000
C        1.15780000      -1.22510000      -1.97280000
H        0.95260000       1.95260000      -0.32230000
H       -0.64600000       1.80100000      -1.08170000
H       -0.51010000       2.05820000       0.68020000
H        0.50510000      -0.15910000       0.97550000
H       -3.69470000      -1.07170000       2.47640000
H        1.63730000      -1.73290000      -2.77320000
