19
Properties=species:S:1:pos:R:3 gdb_115418=T pbc="F F F"
C       -0.05120000       1.50250000      -0.01290000
C        0.19900000      -0.00750000      -0.04130000
C        0.63300000      -0.51550000      -1.40740000
C        0.87030000      -2.04140000      -1.50320000
O        0.19380000      -2.44780000      -2.69360000
C       -0.23050000      -1.27010000      -3.35360000
O       -0.42000000      -0.30060000      -2.35530000
C        0.75290000      -0.83730000      -4.36740000
C        1.54480000      -0.48490000      -5.19950000
H        0.85650000       2.05850000      -0.27160000
H       -0.82850000       1.77790000      -0.73030000
H       -0.37110000       1.82810000       0.98130000
H        0.97890000      -0.27460000       0.68310000
H       -0.70820000      -0.54890000       0.25310000
H        1.53080000       0.02410000      -1.74370000
H        1.93650000      -2.28660000      -1.56290000
H        0.42760000      -2.58040000      -0.65800000
H       -1.19840000      -1.46840000      -3.82520000
H        2.24190000      -0.17500000      -5.93900000
