18
Properties=species:S:1:pos:R:3 gdb_128652=T pbc="F F F"
C       -0.01360000       1.37250000       0.11460000
O        0.06350000      -0.04820000       0.04560000
C        0.67150000      -0.64130000       1.07490000
N        1.18250000       0.00730000       2.10980000
N        1.67510000      -1.02640000       2.86180000
C        2.33480000      -0.74630000       4.11520000
C        1.43280000      -2.20260000       2.24280000
C        1.82740000      -3.54220000       2.76960000
N        0.79400000      -1.99220000       1.10030000
H        0.98590000       1.81820000       0.15270000
H       -0.53260000       1.68840000      -0.79110000
H       -0.57120000       1.69240000       1.00110000
H        1.65080000      -0.23410000       4.79800000
H        2.65680000      -1.68480000       4.56810000
H        3.20820000      -0.10890000       3.95020000
H        1.36160000      -3.75380000       3.73810000
H        1.50060000      -4.29960000       2.05690000
H        2.91210000      -3.62890000       2.89440000
