17
Properties=species:S:1:pos:R:3 gdb_35485=T pbc="F F F"
N       -0.09850000      -1.20080000      -0.16000000
C       -0.06070000      -0.04860000      -0.07120000
C       -0.01080000       1.40890000       0.04070000
C       -0.63920000       1.96430000       1.35980000
C        0.58490000       2.36990000       2.17150000
C        1.53900000       1.18260000       2.46820000
C        2.30950000       1.63310000       1.23640000
C        1.42030000       1.96030000       0.09520000
N        1.57950000       2.96310000       1.16830000
H       -0.52880000       1.81990000      -0.83120000
H       -1.25170000       2.83950000       1.12610000
H       -1.26650000       1.23010000       1.87050000
H        0.37340000       3.04790000       2.99750000
H        2.11830000       1.34780000       3.37850000
H        1.12560000       0.17000000       2.48430000
H        3.38530000       1.57170000       1.10540000
H        1.89420000       2.22450000      -0.84400000
