15
Properties=species:S:1:pos:R:3 gdb_85483=T pbc="F F F"
C       -0.27250000       1.54700000      -0.11950000
C        0.06710000       0.07330000      -0.06980000
O        1.09050000      -0.23640000      -1.02860000
C        1.89230000      -1.21860000      -0.54950000
O        2.72970000      -1.78550000      -1.17180000
O        1.59650000      -1.47360000       0.75730000
C        0.68060000      -0.47770000       1.24800000
C        1.38110000       0.50120000       2.07170000
C        1.95050000       1.30280000       2.76120000
H        0.60620000       2.15500000       0.10420000
H       -0.64460000       1.80760000      -1.11320000
H       -1.05260000       1.77750000       0.61230000
H       -0.81320000      -0.53220000      -0.31850000
H       -0.07550000      -0.99430000       1.84520000
H        2.46090000       2.00630000       3.37280000
