21
Properties=species:S:1:pos:R:3 gdb_77381=T pbc="F F F"
C       -0.00780000       1.63610000       0.06600000
C        0.08390000       0.11570000       0.00750000
C        0.77060000      -0.59990000      -1.15240000
O        0.30540000      -0.73490000      -2.44690000
C        2.27150000      -0.73040000      -0.81360000
C        2.48880000      -0.12820000       0.56900000
C        1.07710000      -0.69180000       0.91980000
C        0.70440000      -1.03290000       2.33900000
C        1.24930000      -1.71950000      -0.28110000
H        0.95860000       2.11770000      -0.10990000
H       -0.70360000       2.00590000      -0.69570000
H       -0.38120000       1.97570000       1.03870000
H       -0.91420000      -0.32250000       0.13460000
H        0.60400000       0.02580000      -2.95700000
H        2.98940000      -0.90380000      -1.60590000
H        3.26720000      -0.66760000       1.11890000
H        2.65850000       0.94950000       0.67270000
H        0.64200000      -0.12730000       2.95480000
H       -0.26790000      -1.53540000       2.38780000
H        1.44790000      -1.69390000       2.79780000
H        1.16360000      -2.79310000      -0.36340000
