13
Properties=species:S:1:pos:R:3 gdb_131964=T pbc="F F F"
C       -0.00630000       1.44000000       0.02760000
N       -0.00100000      -0.00800000      -0.08740000
C        0.04340000      -0.77800000      -1.18860000
C        0.02380000      -2.05570000      -0.67810000
N       -0.03070000      -2.01890000       0.67130000
N       -0.04630000      -0.77430000       1.03620000
N        0.05550000      -3.28170000      -1.43950000
O        0.10470000      -3.14700000      -2.66050000
O        0.03170000      -4.33750000      -0.83290000
H        0.90340000       1.85980000      -0.40800000
H       -0.88110000       1.85870000      -0.47550000
H       -0.04670000       1.67450000       1.09090000
H        0.08370000      -0.40170000      -2.19530000
