16
Properties=species:S:1:pos:R:3 gdb_8377=T pbc="F F F"
O       -0.07930000       1.43260000       0.08930000
C       -0.02160000       0.03700000       0.10220000
C       -0.63790000      -0.72940000       1.25200000
C       -1.32100000      -0.67080000      -0.08900000
C       -2.64840000       0.03490000      -0.41510000
C       -2.91850000      -1.09350000      -1.42890000
O       -3.80270000      -1.32020000      -2.20070000
C       -1.60740000      -1.82520000      -1.06570000
H        0.54350000       1.76660000       0.74320000
H        0.86070000      -0.39290000      -0.37480000
H       -0.17270000      -1.65950000       1.56410000
H       -1.07460000      -0.14230000       2.05410000
H       -3.38460000       0.07830000       0.39450000
H       -2.55380000       1.03270000      -0.85360000
H       -0.90870000      -1.94750000      -1.89990000
H       -1.77720000      -2.80500000      -0.60620000
