11
Properties=species:S:1:pos:R:3 gdb_3777=T pbc="F F F"
C        0.02640000       1.43560000       0.09870000
N        0.33940000       0.01550000       0.11890000
C        0.65740000      -0.56410000      -0.93480000
O        0.96810000      -1.91420000      -0.98890000
C        1.25260000      -2.15070000      -2.28230000
N        1.17030000      -1.14920000      -3.06890000
O        0.77920000      -0.08130000      -2.21490000
H        0.70310000       1.95900000       0.78220000
H        0.09980000       1.90070000      -0.89090000
H       -0.99010000       1.58150000       0.47900000
H        1.52830000      -3.15140000      -2.57570000
