18
Properties=species:S:1:pos:R:3 gdb_54375=T pbc="F F F"
N        0.17670000       1.17500000      -0.51350000
C        0.03470000      -0.02580000       0.12980000
O        0.93820000      -0.54320000       0.76390000
C       -1.28460000      -0.66610000      -0.02130000
C       -2.08240000      -1.44170000       1.01970000
C       -3.35830000      -0.68000000       0.66100000
C       -2.69000000      -0.40110000      -0.71340000
C       -2.57410000      -1.80750000      -1.36250000
C       -1.59630000      -2.14200000      -0.23630000
H        1.02330000       1.69420000      -0.34650000
H       -0.61480000       1.65860000      -0.90000000
H       -1.71790000      -1.72950000       1.99650000
H       -4.31070000      -1.22260000       0.65260000
H       -3.45680000       0.22910000       1.26000000
H       -2.97480000       0.46570000      -1.30800000
H       -3.49580000      -2.39420000      -1.45170000
H       -2.06450000      -1.77010000      -2.32870000
H       -0.87280000      -2.94410000      -0.18420000
