17
Properties=species:S:1:pos:R:3 gdb_77428=T pbc="F F F"
O        0.02140000       1.43220000      -0.21260000
C       -0.09750000       0.05160000       0.02330000
C       -0.44770000      -0.68110000       1.28340000
O        0.48050000      -1.54470000       1.83020000
C       -1.62890000      -0.10710000       2.11150000
C       -2.25490000       1.16060000       1.57680000
C       -2.53040000      -0.15650000       0.89610000
C       -1.37350000      -0.73170000       0.02800000
O       -1.62130000      -1.75350000      -0.87070000
H        0.82130000       1.73490000       0.23200000
H        0.65860000      -0.54270000      -0.50000000
H        0.01010000      -2.29630000       2.20920000
H       -1.84350000      -0.48970000       3.10220000
H       -3.08160000       1.52990000       2.17970000
H       -1.66130000       1.92260000       1.09420000
H       -3.51490000      -0.60220000       0.83570000
H       -1.71750000      -1.36990000      -1.75020000
