17
Properties=species:S:1:pos:R:3 gdb_48111=T pbc="F F F"
O       -0.84800000       1.59940000       0.53510000
C        0.08990000       1.09530000      -0.02510000
C        1.32370000       1.88150000      -0.49840000
O        2.19190000       1.26770000      -1.07620000
C        1.33890000       3.35440000      -0.18900000
C        1.57790000       3.78050000       1.31580000
C        2.75590000       4.64240000       0.84620000
C        3.77910000       3.78960000       0.15650000
C        2.54730000       4.19300000      -0.60460000
H        0.15330000       0.01170000      -0.26280000
H        0.38700000       3.77790000      -0.52110000
H        0.73160000       4.34360000       1.70960000
H        1.82470000       2.97920000       2.01960000
H        2.98440000       5.63170000       1.22190000
H        4.68430000       4.30580000      -0.14630000
H        3.93670000       2.75610000       0.45060000
H        2.60410000       4.77540000      -1.51540000
