14
Properties=species:S:1:pos:R:3 gdb_5424=T pbc="F F F"
C        0.00180000       1.51950000       0.07610000
C        0.01730000       0.03200000      -0.04040000
C       -0.03080000      -0.83980000      -1.11830000
C       -0.11610000      -0.46980000      -2.52980000
O       -0.15730000      -1.23970000      -3.46090000
N        0.01310000      -2.15490000      -0.68290000
C        0.08560000      -2.08550000       0.61470000
N        0.09160000      -0.78460000       1.05820000
H        0.90930000       1.89400000       0.56430000
H       -0.05970000       1.98280000      -0.90920000
H       -0.85670000       1.86810000       0.66220000
H       -0.14220000       0.63130000      -2.70250000
H        0.13670000      -2.92080000       1.29800000
H        0.14080000      -0.47930000       2.01710000
