20
Properties=species:S:1:pos:R:3 gdb_65395=T pbc="F F F"
C       -0.03590000       1.64710000       0.11860000
C        0.01360000       0.13590000      -0.00690000
N        0.98870000      -0.37460000      -0.97180000
C        1.23300000      -0.62680000       0.46580000
C        2.42550000       0.03670000       1.05940000
O        2.94410000      -0.32300000       2.08770000
C       -1.28690000      -0.61460000       0.11370000
C       -2.47510000      -0.09090000       0.88250000
C       -2.53830000      -0.18120000      -0.61950000
H        0.92120000       2.08450000      -0.16760000
H       -0.79700000       2.06960000      -0.54510000
H       -0.26800000       1.95460000       1.14240000
H        0.64850000      -1.22360000      -1.41770000
H        1.04430000      -1.61690000       0.87450000
H        2.81660000       0.89700000       0.47440000
H       -1.14300000      -1.69110000       0.16770000
H       -3.04720000      -0.79750000       1.47290000
H       -2.40440000       0.89710000       1.32240000
H       -2.51350000       0.74390000      -1.18420000
H       -3.14990000      -0.95510000      -1.06960000
