17
Properties=species:S:1:pos:R:3 gdb_15868=T pbc="F F F"
C        0.17590000       1.52900000      -0.20920000
C        0.05720000       0.04680000       0.06250000
O        0.85290000      -0.75660000      -0.83300000
C        1.41650000      -1.53030000       0.24600000
C        2.92050000      -1.65540000       0.16130000
C        0.76720000      -0.58150000       1.30690000
C        1.67200000       0.28390000       2.04150000
N        2.39590000       0.97530000       2.62070000
H        1.21190000       1.86590000      -0.12480000
H       -0.17910000       1.74170000      -1.22210000
H       -0.43640000       2.09930000       0.49690000
H       -0.99560000      -0.26680000       0.02790000
H        0.95050000      -2.52460000       0.29060000
H        3.40110000      -0.67410000       0.17070000
H        3.30530000      -2.24190000       1.00190000
H        3.19020000      -2.16750000      -0.76730000
H        0.09660000      -1.07750000       2.01090000
