15
Properties=species:S:1:pos:R:3 gdb_18043=T pbc="F F F"
C        0.04300000       1.52580000       0.15190000
O        1.45650000       1.55400000      -0.14630000
C        1.43670000       0.16870000      -0.54490000
C        2.49590000      -0.68000000       0.11930000
O        2.26270000      -0.89580000       1.51660000
C        0.97410000      -0.99970000       1.91190000
N       -0.09030000      -0.68040000       1.30540000
C        0.00930000      -0.01810000       0.02280000
H       -0.18410000       1.91950000       1.14680000
H       -0.54300000       2.05890000      -0.60750000
H        1.51820000       0.06520000      -1.63640000
H        2.53210000      -1.65800000      -0.37960000
H        3.47990000      -0.21020000       0.04470000
H        0.93010000      -1.42210000       2.91440000
H       -0.74310000      -0.42230000      -0.65680000
