15
Properties=species:S:1:pos:R:3 gdb_47622=T pbc="F F F"
O       -0.05860000      -0.08440000      -0.02910000
C       -0.03440000       1.12610000       0.02540000
C       -1.32140000       1.95980000       0.01220000
C       -1.19060000       3.25970000       0.80530000
N        0.01110000       3.97490000       0.38380000
C        1.14520000       3.29170000       0.14660000
C        1.20260000       1.92620000       0.02100000
C        2.46040000       1.29280000      -0.17580000
N        3.49500000       0.79490000      -0.33160000
H       -1.54730000       2.18690000      -1.03810000
H       -2.13700000       1.34720000       0.40070000
H       -2.05780000       3.90610000       0.64960000
H       -1.12510000       3.03680000       1.88110000
H        0.08470000       4.95500000       0.60090000
H        2.04620000       3.88910000       0.05000000
