24
Properties=species:S:1:pos:R:3 gdb_6473=T pbc="F F F"
C        0.11560000       1.51810000      -0.17180000
C       -0.01880000       0.01320000       0.08960000
C       -1.45630000      -0.51910000       0.08500000
C       -2.30360000       0.09790000       1.20210000
C       -2.19540000      -0.49420000      -1.29370000
C       -2.65890000      -1.95900000      -1.05790000
C       -2.60560000      -2.93670000      -2.22210000
C       -1.58770000      -2.07630000       0.06220000
H        1.16860000       1.81050000      -0.23120000
H       -0.35970000       1.79980000      -1.11810000
H       -0.34560000       2.11450000       0.62130000
H        0.55300000      -0.53090000      -0.67350000
H        0.45020000      -0.23450000       1.05250000
H       -2.41210000       1.18040000       1.07840000
H       -3.31150000      -0.33010000       1.21840000
H       -1.85090000      -0.08520000       2.18400000
H       -2.97050000       0.26500000      -1.43470000
H       -1.49010000      -0.42650000      -2.12970000
H       -3.66320000      -1.96900000      -0.62100000
H       -1.60970000      -2.94730000      -2.68040000
H       -2.83210000      -3.95850000      -1.89640000
H       -3.32740000      -2.66900000      -3.00240000
H       -0.67280000      -2.55440000      -0.30490000
H       -1.88150000      -2.56510000       0.99610000
