18
Properties=species:S:1:pos:R:3 gdb_98674=T pbc="F F F"
C       -0.18310000       1.34330000       0.02520000
O       -0.04820000      -0.07880000       0.05700000
C        0.59620000      -0.55830000       1.15150000
O        1.04550000       0.12540000       2.04520000
N        0.64550000      -1.91520000       1.11150000
C        0.52950000      -2.84590000      -0.01680000
C        1.29610000      -3.89330000       0.82890000
O        2.42350000      -4.38480000       0.15140000
C        1.53190000      -2.77450000       1.89550000
H        0.79600000       1.82890000       0.04650000
H       -0.69930000       1.57080000      -0.90820000
H       -0.76740000       1.69870000       0.87820000
H       -0.49690000      -3.09230000      -0.30140000
H        1.09450000      -2.54110000      -0.90390000
H        0.65650000      -4.70430000       1.19710000
H        2.87140000      -5.01880000       0.72070000
H        2.56970000      -2.42340000       1.92200000
H        1.18490000      -2.97370000       2.91390000
