13
Properties=species:S:1:pos:R:3 gdb_123969=T pbc="F F F"
C       -0.00770000       1.51880000      -0.04860000
N        1.36130000       2.04820000       0.04010000
C        2.36190000       1.29030000       0.25110000
N        2.36020000      -0.08680000       0.44790000
C        1.13740000      -0.69450000       0.21480000
C        0.01130000       0.02600000      -0.01020000
O       -0.98960000      -0.83090000      -0.18950000
N       -0.42030000      -2.14680000      -0.06630000
N        0.81780000      -2.01720000       0.17140000
H       -0.60600000       1.93480000       0.77500000
H       -0.47360000       1.89010000      -0.97090000
H        3.35340000       1.73640000       0.31080000
H        3.21480000      -0.61250000       0.36090000
