18
Properties=species:S:1:pos:R:3 gdb_109404=T pbc="F F F"
C       -0.04220000       1.54960000       0.13530000
C        0.08800000       0.06300000       0.02090000
N       -0.76870000      -0.87520000       0.75760000
C        0.72930000      -0.92430000       0.96500000
C        1.21500000      -1.73060000      -0.21630000
O        1.88270000      -2.71580000      -0.36560000
C        0.58450000      -0.72550000      -1.21560000
C       -0.37110000      -1.30360000      -2.25660000
O        0.32400000      -2.18120000      -3.12640000
H        0.85270000       2.05230000      -0.24510000
H       -0.90060000       1.91440000      -0.43980000
H       -0.18500000       1.85260000       1.17820000
H       -1.13870000      -0.38560000       1.57430000
H        1.14800000      -0.80120000       1.95600000
H        1.40480000      -0.19510000      -1.71540000
H       -1.20770000      -1.80200000      -1.74860000
H       -0.78760000      -0.51010000      -2.88690000
H        0.79310000      -2.82110000      -2.57690000
