16
Properties=species:S:1:pos:R:3 gdb_29341=T pbc="F F F"
C       -0.01430000       1.49790000       0.04920000
C       -0.02040000       0.00300000       0.00970000
C       -0.03500000      -0.80080000      -1.09290000
N       -0.02100000      -2.12790000      -0.67430000
C       -0.00040000      -2.18570000       0.68360000
N       -0.06520000      -3.39330000       1.36780000
C        0.00880000      -0.87700000       1.15520000
C        0.06410000      -0.52960000       2.52020000
N        0.11250000      -0.27090000       3.65120000
H        0.87830000       1.88440000       0.55390000
H       -0.03670000       1.91560000      -0.96090000
H       -0.88080000       1.88810000       0.59490000
H       -0.04310000      -0.55430000      -2.14180000
H       -0.13500000      -2.92820000      -1.27210000
H        0.64720000      -4.06080000       1.09560000
H       -0.03520000      -3.25310000       2.37020000
