12
Properties=species:S:1:pos:R:3 gdb_131010=T pbc="F F F"
O       -0.02230000      -0.04210000      -0.00040000
C        0.01720000       1.14890000       0.00920000
N        1.20790000       1.91330000       0.00180000
C        1.27160000       3.28770000       0.01260000
C        2.59410000       3.62080000       0.00000000
C        3.26970000       2.36350000      -0.01820000
N        2.42760000       1.33650000      -0.01700000
C        4.67970000       2.15820000      -0.03620000
N        5.83030000       2.04340000      -0.05040000
H       -0.86300000       1.81620000       0.02480000
H        0.37720000       3.88990000       0.02790000
H        3.03470000       4.60350000       0.00310000
