18
Properties=species:S:1:pos:R:3 gdb_115109=T pbc="F F F"
C        0.03010000       1.27910000      -0.22080000
O       -0.04930000      -0.13530000      -0.09860000
C       -1.33120000      -0.64160000       0.04390000
O       -2.07280000      -0.33930000      -1.14620000
C       -3.09090000      -1.18480000      -1.46830000
N       -3.42860000      -2.26990000      -0.92360000
C       -2.61440000      -2.76730000       0.17960000
C       -1.21790000      -2.15150000       0.25060000
O       -0.42940000      -2.72500000      -0.77170000
H        1.09150000       1.53170000      -0.24760000
H       -0.45440000       1.62730000      -1.13800000
H       -0.43650000       1.77240000       0.64320000
H       -1.85310000      -0.16090000       0.88810000
H       -3.63810000      -0.78780000      -2.32080000
H       -3.15150000      -2.60080000       1.12230000
H       -2.50570000      -3.85050000       0.06610000
H       -0.77220000      -2.32510000       1.24280000
H        0.31200000      -2.12440000      -0.91740000
