19
Properties=species:S:1:pos:R:3 gdb_34593=T pbc="F F F"
C        0.07450000      -1.19420000       0.01970000
C       -0.01500000       0.00820000       0.01480000
C       -0.05440000       1.42600000       0.00710000
C       -1.19350000       2.13960000       0.03620000
C       -1.12790000       3.64630000       0.02480000
C        0.33360000       4.12370000      -0.02130000
C        1.11820000       3.33110000      -1.10820000
C        1.25630000       2.20840000      -0.03650000
C        1.18110000       3.34450000       1.02740000
H        0.13420000      -2.25400000       0.02460000
H       -2.16200000       1.65100000       0.06780000
H       -1.68600000       4.03940000      -0.83750000
H       -1.63440000       4.05040000       0.91340000
H        0.39620000       5.21430000      -0.03000000
H        0.60730000       3.08070000      -2.04160000
H        2.08130000       3.79990000      -1.32620000
H        2.12680000       1.55370000      -0.05800000
H        2.15530000       3.81570000       1.18240000
H        0.72620000       3.10600000       1.99230000
