19
Properties=species:S:1:pos:R:3 gdb_15045=T pbc="F F F"
C        0.00390000       1.54980000       0.00110000
C        0.01210000       0.02020000      -0.03410000
C        0.71890000      -0.57900000      -1.26840000
C        0.77300000      -2.03920000      -1.16680000
C        0.81910000      -3.23590000      -1.06810000
N        0.01380000      -0.19520000      -2.50210000
C        0.55780000       0.94660000      -3.23710000
C        0.73150000      -0.43750000      -3.74990000
H        1.02070000       1.95750000      -0.03680000
H       -0.56030000       1.96750000      -0.83660000
H       -0.45980000       1.90690000       0.92570000
H        0.51400000      -0.37130000       0.85740000
H       -1.01270000      -0.36450000      -0.01800000
H        1.76130000      -0.20490000      -1.28520000
H        0.86070000      -4.29370000      -0.98530000
H       -0.17670000       1.61530000      -3.67670000
H        1.43970000       1.44240000      -2.83490000
H        1.72760000      -0.87160000      -3.68790000
H        0.12720000      -0.80520000      -4.57370000
