19
Properties=species:S:1:pos:R:3 gdb_59228=T pbc="F F F"
C        0.86070000      -0.37340000      -1.13020000
N        0.03520000       0.01290000       0.00490000
C        0.14960000       1.43780000       0.30220000
C       -1.34550000      -0.38010000      -0.18000000
C       -1.67370000      -1.87500000      -0.21890000
C       -1.36090000      -2.52020000       1.06010000
N       -2.64740000      -1.75230000       0.96770000
C       -2.25600000      -0.36060000       1.07120000
O       -2.62810000       0.46930000       1.84090000
H        1.90500000      -0.11980000      -0.92460000
H        0.79870000      -1.45480000      -1.28680000
H        0.56540000       0.12980000      -2.07070000
H       -0.14220000       2.07530000      -0.55390000
H       -0.49040000       1.69190000       1.14940000
H        1.18650000       1.67160000       0.56130000
H       -1.84700000       0.15490000      -1.01110000
H       -1.98700000      -2.42050000      -1.09990000
H       -1.53480000      -3.58610000       1.15820000
H       -0.56240000      -2.11780000       1.67580000
