16
Properties=species:S:1:pos:R:3 gdb_42706=T pbc="F F F"
O        0.01820000       0.03860000       0.09190000
C       -0.01140000       1.23380000       0.07580000
C       -1.10120000       2.30170000      -0.01850000
C       -1.11780000       3.19540000       1.27680000
C       -0.01150000       2.77690000       2.27970000
C        1.03800000       3.24830000       1.23980000
C       -0.07360000       4.09940000       0.55030000
N       -0.07350000       3.23120000      -0.69130000
C        1.02090000       2.35370000      -0.05480000
H       -2.04610000       2.09540000      -0.52150000
H       -2.09220000       3.51730000       1.63890000
H       -0.01320000       3.45100000       3.14140000
H        0.01990000       1.74120000       2.63070000
H        2.00730000       3.61780000       1.56860000
H       -0.10160000       5.18520000       0.46830000
H        1.95700000       2.19350000      -0.59010000
