19
Properties=species:S:1:pos:R:3 gdb_94245=T pbc="F F F"
C       -0.64460000       1.21660000       0.05480000
C        0.18260000      -0.04690000      -0.11960000
C        1.58900000       0.03410000      -0.76470000
C        2.10070000      -1.02430000       0.24250000
C        0.85750000      -0.75210000       1.14830000
C        1.14620000       0.27800000       2.23530000
O        2.14820000       0.94250000       2.29230000
C        0.14070000      -1.87470000       1.71710000
C       -0.46220000      -2.79460000       2.20510000
H       -0.07610000       2.00840000       0.55320000
H       -0.95230000       1.59920000      -0.92450000
H       -1.55320000       1.02730000       0.63660000
H       -0.41430000      -0.81780000      -0.61540000
H        1.65560000      -0.20650000      -1.82760000
H        2.05530000       1.00730000      -0.59110000
H        2.07710000      -2.03980000      -0.15560000
H        3.06190000      -0.83180000       0.71950000
H        0.33180000       0.39040000       2.98260000
H       -0.98860000      -3.61510000       2.62640000
