19
Properties=species:S:1:pos:R:3 gdb_5945=T pbc="F F F"
C        0.11440000       1.54080000      -0.10430000
C       -0.02120000       0.02210000       0.03210000
C       -1.47820000      -0.48960000       0.07170000
C       -2.27120000       0.08320000       1.24740000
O       -2.18600000      -0.08830000      -1.09710000
C       -1.43720000      -2.04480000       0.14740000
C       -2.75860000      -2.66490000       0.10330000
N       -3.80050000      -3.16370000       0.07640000
H        1.15870000       1.81860000      -0.27290000
H       -0.47940000       1.90660000      -0.94620000
H       -0.22350000       2.06150000       0.79620000
H        0.48160000      -0.46280000      -0.81750000
H        0.50450000      -0.32490000       0.93040000
H       -2.36370000       1.16610000       1.14700000
H       -3.27780000      -0.34120000       1.26730000
H       -1.77660000      -0.14070000       2.19730000
H       -1.70640000      -0.40250000      -1.87190000
H       -0.84450000      -2.43380000      -0.68990000
H       -0.92910000      -2.36340000       1.06450000
