16
Properties=species:S:1:pos:R:3 gdb_127880=T pbc="F F F"
C        0.07010000       1.43890000       0.06490000
N        0.00710000      -0.01130000       0.07120000
C       -1.12200000      -0.58460000      -0.00150000
N       -2.38110000       0.00100000      -0.09160000
C       -3.39130000      -0.79480000      -0.15470000
N       -3.38050000      -2.17970000      -0.14380000
N       -2.23050000      -2.74380000      -0.06130000
N       -1.13600000      -2.00900000       0.00790000
C        0.12240000      -2.73640000       0.09900000
H        0.69210000       1.76590000      -0.77660000
H       -0.90690000       1.92790000      -0.00490000
H        0.57320000       1.77870000       0.97780000
H       -4.38880000      -0.36600000      -0.22580000
H       -0.11550000      -3.79900000       0.09050000
H        0.76220000      -2.46590000      -0.74390000
H        0.64210000      -2.45300000       1.01690000
