16
Properties=species:S:1:pos:R:3 gdb_55514=T pbc="F F F"
C       -0.23830000       1.47840000       0.01220000
C        0.13600000       0.00590000       0.00120000
O        1.26890000      -0.40080000      -0.01520000
N       -0.98820000      -0.83250000       0.01260000
C       -1.01900000      -2.20740000       0.00420000
O       -0.07540000      -2.96450000      -0.01490000
C       -2.45820000      -2.73840000       0.01850000
N       -2.47880000      -4.09020000       0.04230000
N       -3.41740000      -1.88780000       0.01500000
H        0.67470000       2.07210000       0.00260000
H       -0.84770000       1.72980000      -0.86240000
H       -0.82440000       1.72240000       0.90460000
H       -1.92080000      -0.42870000       0.02380000
H       -1.58900000      -4.56230000      -0.01100000
H       -3.33440000      -4.61130000      -0.02130000
H       -4.33820000      -2.32630000       0.02470000
