21
Properties=species:S:1:pos:R:3 gdb_102722=T pbc="F F F"
C        0.25540000       1.49850000       0.44930000
C        0.09920000       0.03780000       0.01600000
C        0.82790000      -0.29140000      -1.30400000
N        2.27990000      -0.20830000      -1.14790000
C        3.02580000      -0.33910000      -2.37500000
C        3.07250000       0.76100000      -3.41840000
C        4.28280000       0.45110000      -2.56160000
C        0.46570000      -1.65230000      -1.74250000
N        0.16030000      -2.71040000      -2.09170000
H        1.28770000       1.74920000       0.71510000
H       -0.06800000       2.18560000      -0.34050000
H       -0.35580000       1.69780000       1.33400000
H        0.47450000      -0.63620000       0.79250000
H       -0.96240000      -0.18970000      -0.12220000
H        0.45240000       0.39160000      -2.08930000
H        2.51180000       0.66320000      -0.68640000
H        3.02850000      -1.35890000      -2.74890000
H        3.09350000       0.48800000      -4.46770000
H        2.53760000       1.68130000      -3.20530000
H        4.54870000       1.16790000      -1.79030000
H        5.13650000      -0.03780000      -3.01660000
