16
Properties=species:S:1:pos:R:3 gdb_110177=T pbc="F F F"
O        0.10390000       1.37910000       0.23000000
C        0.07040000       0.01740000      -0.13810000
C       -1.36810000      -0.49680000      -0.10540000
C       -1.63370000      -2.04680000      -0.08000000
N       -2.23800000      -1.83720000       1.25100000
C       -1.94810000      -0.50070000       1.32160000
O       -2.03150000       0.32380000       2.19820000
C       -2.50980000      -2.59930000      -1.09870000
C       -3.22280000      -3.06060000      -1.94880000
H       -0.36940000       1.46000000       1.06990000
H        0.48990000      -0.05220000      -1.14710000
H        0.69840000      -0.60320000       0.52410000
H       -1.99160000       0.03590000      -0.82520000
H       -0.70340000      -2.62540000      -0.02650000
H       -2.55280000      -2.49860000       1.94640000
H       -3.85620000      -3.46560000      -2.69930000
