20
Properties=species:S:1:pos:R:3 gdb_115536=T pbc="F F F"
C        0.01810000       1.60790000      -0.13980000
C       -0.32880000       0.14300000      -0.42770000
C        0.80380000      -0.57580000      -1.13900000
N        2.05390000      -0.78870000      -0.36540000
C        2.27600000      -2.09080000      -1.02920000
C        0.74090000      -2.13420000      -1.34910000
N       -0.11540000      -2.80060000      -0.37700000
C        0.39150000      -2.58090000      -2.69470000
N        0.14440000      -2.93330000      -3.76740000
H        0.89930000       1.68140000       0.50620000
H        0.22880000       2.15830000      -1.06370000
H       -0.80820000       2.11400000       0.36760000
H       -0.56340000      -0.37350000       0.50750000
H       -1.22600000       0.08120000      -1.05510000
H        0.98830000      -0.09870000      -2.11410000
H        2.78200000      -0.09880000      -0.51370000
H        2.88800000      -2.04810000      -1.94010000
H        2.64820000      -2.88810000      -0.37700000
H       -0.03460000      -3.80840000      -0.47580000
H        0.20580000      -2.56330000       0.55720000
