15
Properties=species:S:1:pos:R:3 gdb_51077=T pbc="F F F"
O       -0.37980000       0.48340000       0.78180000
C        0.04660000       1.04500000      -0.19130000
C        1.34640000       1.84180000      -0.19820000
C        1.31910000       3.00080000      -1.14550000
C        2.40820000       4.04060000      -1.51830000
C        1.29350000       4.20040000      -2.57820000
O        1.17170000       2.71780000      -2.61130000
C        0.25290000       4.10690000      -1.43270000
O       -0.79950000       4.51180000      -1.06790000
H       -0.47500000       0.99710000      -1.17070000
H        1.56310000       2.17620000       0.82050000
H        2.15210000       1.15700000      -0.49860000
H        2.60820000       4.86530000      -0.82940000
H        3.31210000       3.58080000      -1.92120000
H        1.29720000       4.72660000      -3.52900000
