15
Properties=species:S:1:pos:R:3 gdb_33959=T pbc="F F F"
N        0.07200000      -1.16110000      -0.06170000
C        0.06770000      -0.00600000       0.01090000
C        0.04480000       1.42350000       0.10330000
N        0.28400000       2.25360000      -1.10340000
C        1.28990000       2.25870000      -0.04080000
C        1.20880000       3.43050000       0.93720000
C       -0.13990000       3.29490000       1.63800000
O       -1.28080000       3.39510000       0.78040000
C       -0.84250000       2.09630000       1.14680000
H        0.59070000       1.65110000      -1.86550000
H        2.24990000       1.78820000      -0.22820000
H        2.01390000       3.35020000       1.67510000
H        1.30720000       4.39360000       0.42780000
H       -0.27560000       3.69810000       2.63870000
H       -1.52600000       1.48930000       1.73230000
