12
Properties=species:S:1:pos:R:3 gdb_49950=T pbc="F F F"
O       -0.28770000       0.49930000       0.82180000
C        0.23510000       0.85150000      -0.19990000
C        1.43440000       1.76050000      -0.21070000
N        2.30610000       1.65210000      -1.37360000
C        1.52640000       2.89020000      -1.23390000
C        0.47850000       3.09460000      -2.21430000
N       -0.37030000       3.25890000      -2.97970000
C        2.19600000       4.09300000      -0.78920000
N        2.76310000       5.03440000      -0.43190000
H       -0.10920000       0.53000000      -1.20320000
H        1.85110000       1.98350000       0.76800000
H        3.28200000       1.81500000      -1.13530000
