18
Properties=species:S:1:pos:R:3 gdb_91680=T pbc="F F F"
O       -0.14390000       1.40180000       0.01330000
C       -0.03430000      -0.01010000       0.02240000
C        0.48030000      -0.60780000       1.37950000
C       -0.77890000      -1.38790000       1.79510000
C       -1.16690000      -2.08540000       0.45870000
C       -1.44000000      -0.62650000      -0.00120000
C       -1.90530000      -0.34010000       1.47080000
C       -3.25400000      -0.77420000       1.78680000
N       -4.32940000      -1.10960000       2.04950000
H        0.74070000       1.77620000       0.06900000
H        0.55940000      -0.35750000      -0.83400000
H        1.34610000      -1.26450000       1.25730000
H        0.74220000       0.19070000       2.07980000
H       -0.76770000      -1.91630000       2.74730000
H       -0.38920000      -2.64960000      -0.06350000
H       -2.07960000      -2.67810000       0.53220000
H       -2.07360000      -0.38130000      -0.85150000
H       -1.75080000       0.68070000       1.82660000
