19
Properties=species:S:1:pos:R:3 gdb_58214=T pbc="F F F"
C        0.52230000       0.45340000      -0.75270000
C        0.04790000      -0.02680000       0.62280000
O        0.06550000       1.03160000       1.56870000
C       -1.36840000      -0.63770000       0.62350000
O       -2.34330000       0.37490000       0.38670000
C       -1.54320000      -1.82470000      -0.35200000
O       -0.49310000      -2.77530000      -0.19960000
C       -2.86340000      -2.44070000      -0.21400000
C       -3.92450000      -2.98250000      -0.05630000
H        1.47270000       0.97970000      -0.63690000
H        0.67420000      -0.38160000      -1.44360000
H       -0.18670000       1.15940000      -1.20300000
H        0.74610000      -0.78350000       0.99150000
H       -0.75700000       1.52000000       1.42990000
H       -1.57420000      -0.98680000       1.64160000
H       -2.31490000       0.61480000      -0.54680000
H       -1.43220000      -1.44480000      -1.37680000
H       -0.69860000      -3.31510000       0.57190000
H       -4.86900000      -3.45230000       0.06900000
