21
Properties=species:S:1:pos:R:3 gdb_115842=T pbc="F F F"
C       -0.34140000       1.47160000      -0.19910000
C       -0.02300000       0.00510000      -0.00270000
C        1.32760000      -0.59510000      -0.30130000
O        2.43010000       0.26720000      -0.40350000
C        2.69890000       0.88560000       0.86020000
C        1.81700000       0.19260000       1.92960000
C        1.22070000       1.16340000       2.94090000
O        2.30700000       1.77140000       3.62940000
C        0.82050000      -0.61840000       1.11280000
H        0.54090000       2.10620000      -0.10610000
H       -0.74500000       1.63190000      -1.20500000
H       -1.09340000       1.82150000       0.51670000
H       -0.84920000      -0.64820000      -0.27820000
H        1.43430000      -1.47440000      -0.92800000
H        3.76840000       0.78670000       1.06980000
H        2.47370000       1.95840000       0.80580000
H        2.43220000      -0.51670000       2.49630000
H        0.60580000       1.91640000       2.42640000
H        0.56310000       0.61740000       3.63560000
H        1.95350000       2.43390000       4.22970000
H        0.44660000      -1.53360000       1.55840000
