21
Properties=species:S:1:pos:R:3 gdb_1092=T pbc="F F F"
C       -0.07380000       1.56180000       0.08370000
C        0.02330000       0.02470000       0.03560000
C        0.69560000      -0.49010000       1.32300000
C       -1.40010000      -0.55850000      -0.04640000
C        0.79590000      -0.44420000      -1.22040000
C        2.24390000       0.01650000      -1.35570000
O        2.74110000      -0.53120000      -2.57140000
H        0.90690000       2.03280000       0.20450000
H       -0.52540000       1.95820000      -0.83260000
H       -0.69560000       1.88340000       0.92650000
H        0.09630000      -0.22960000       2.20250000
H        0.80180000      -1.58060000       1.30450000
H        1.69120000      -0.05920000       1.46840000
H       -1.91840000      -0.21110000      -0.94680000
H       -1.37760000      -1.65340000      -0.07540000
H       -1.99780000      -0.25840000       0.82120000
H        0.79490000      -1.54100000      -1.25330000
H        0.25900000      -0.11020000      -2.11710000
H        2.30050000       1.11560000      -1.37150000
H        2.84190000      -0.32990000      -0.49890000
H        3.65460000      -0.24930000      -2.67390000
