21
Properties=species:S:1:pos:R:3 gdb_107730=T pbc="F F F"
C        0.07360000       1.25530000      -0.28140000
O       -0.08310000      -0.04830000       0.25420000
C       -1.36910000      -0.52420000       0.16770000
C       -2.56680000      -0.14890000       1.03720000
C       -3.21880000      -1.45560000       0.48150000
C       -4.24840000      -2.20480000       1.28470000
C       -3.44140000      -1.13520000      -1.02930000
C       -1.92210000      -1.12340000      -1.14500000
C       -1.75810000      -1.96750000       0.10730000
H        1.12860000       1.51850000      -0.17740000
H       -0.20670000       1.28910000      -1.34320000
H       -0.53250000       1.99290000       0.26310000
H       -2.32220000      -0.24560000       2.09950000
H       -3.09830000       0.79370000       0.85860000
H       -5.16180000      -1.60820000       1.39840000
H       -4.52480000      -3.14630000       0.79720000
H       -3.87940000      -2.44160000       2.28860000
H       -3.88060000      -1.98790000      -1.55780000
H       -4.00390000      -0.22520000      -1.27290000
H       -1.30070000      -1.15080000      -2.03120000
H       -1.21040000      -2.87760000       0.30430000
