17
Properties=species:S:1:pos:R:3 gdb_10832=T pbc="F F F"
C       -0.06010000       1.54990000       0.02530000
C        0.01900000       0.02320000      -0.00790000
C        0.74430000      -0.48780000      -1.25300000
N        1.05740000      -1.89850000      -1.09450000
C        1.02610000      -2.64170000       0.05610000
O        1.21000000      -3.83320000       0.08020000
O        0.75570000      -1.96890000       1.20740000
C        0.75370000      -0.53870000       1.20380000
H        0.93890000       1.99850000       0.06330000
H       -0.56560000       1.93710000      -0.86480000
H       -0.61700000       1.89580000       0.90140000
H       -0.99510000      -0.39570000       0.00060000
H        0.12080000      -0.35080000      -2.14430000
H        1.66250000       0.10000000      -1.40830000
H        1.27210000      -2.44930000      -1.90940000
H        1.78990000      -0.17010000       1.22720000
H        0.27110000      -0.24740000       2.14030000
