17
Properties=species:S:1:pos:R:3 gdb_19374=T pbc="F F F"
O       -0.07800000       1.38850000       0.12870000
C        0.00880000      -0.01760000      -0.02900000
C       -1.33850000      -0.66940000       0.08860000
C       -1.84760000      -1.69710000      -0.84280000
N       -2.40020000      -0.32900000      -0.93890000
C       -3.34450000      -0.05820000       0.21960000
C       -3.55280000      -1.14030000       1.24210000
C       -2.28700000      -0.32880000       1.26100000
H       -0.73530000       1.68590000      -0.51240000
H        0.46100000      -0.28980000      -0.99530000
H        0.67680000      -0.37450000       0.76410000
H       -1.21980000      -1.93560000      -1.69700000
H       -2.46650000      -2.52400000      -0.51510000
H       -4.02420000       0.77540000       0.09850000
H       -4.26360000      -0.85020000       2.01080000
H       -3.58190000      -2.20090000       1.01890000
H       -1.97420000       0.28210000       2.09610000
