13
Properties=species:S:1:pos:R:3 gdb_1071=T pbc="F F F"
C       -0.02870000       1.39310000       0.03600000
O       -0.00940000      -0.02290000       0.02290000
C        0.60180000      -0.57570000      -1.04820000
C        1.20450000       0.01370000      -2.12280000
O        1.68750000      -0.95600000      -2.96080000
C        1.38400000      -2.15230000      -2.40540000
C        0.71950000      -1.99330000      -1.23350000
H        0.99090000       1.80210000       0.04210000
H       -0.56460000       1.78910000      -0.83740000
H       -0.54670000       1.69280000       0.94770000
H        1.36900000       1.03090000      -2.42990000
H        1.70410000      -3.02120000      -2.95720000
H        0.35140000      -2.75970000      -0.57070000
