23
Properties=species:S:1:pos:R:3 gdb_107840=T pbc="F F F"
C        0.05340000       1.50870000      -0.02950000
C       -0.03320000      -0.01970000       0.07110000
C       -1.44930000      -0.55490000       0.02250000
C       -2.35240000      -0.41130000      -1.24160000
C       -3.08950000      -1.61580000      -0.64560000
C       -3.41840000      -1.33210000       0.88760000
C       -2.51390000      -2.54020000       1.25190000
C       -1.75630000      -2.12540000      -0.01710000
C       -2.45590000      -0.15170000       1.12920000
H        1.09440000       1.84590000      -0.01180000
H       -0.39760000       1.87000000      -0.96000000
H       -0.46770000       1.99450000       0.80190000
H        0.54880000      -0.46890000      -0.74440000
H        0.44340000      -0.35230000       1.00350000
H       -2.88210000       0.53510000      -1.39650000
H       -1.82670000      -0.69300000      -2.16020000
H       -3.77360000      -2.25680000      -1.20100000
H       -4.44150000      -1.24930000       1.25450000
H       -2.00980000      -2.53100000       2.22460000
H       -3.01690000      -3.50140000       1.10750000
H       -1.04410000      -2.75850000      -0.54740000
H       -2.03190000      -0.16110000       2.13900000
H       -2.89970000       0.83230000       0.95110000
