20
Properties=species:S:1:pos:R:3 gdb_111152=T pbc="F F F"
C        0.07710000       1.53610000       0.14000000
C       -0.15170000       0.03500000      -0.07130000
C        0.59350000      -0.50680000      -1.27950000
C        2.11900000      -0.81550000      -1.15400000
O        1.78970000      -1.96940000      -0.28010000
C        0.81710000      -2.04290000      -1.40540000
C        1.98600000      -1.75800000      -2.35770000
C        2.22540000      -1.64990000      -3.80350000
N        2.89900000      -2.68390000      -2.96360000
H        1.13510000       1.75540000       0.32050000
H       -0.23660000       2.11680000      -0.73490000
H       -0.48820000       1.90320000       1.00200000
H        0.16030000      -0.52530000       0.81440000
H       -1.22450000      -0.15360000      -0.20770000
H        0.30430000      -0.00500000      -2.21000000
H        2.94580000      -0.17110000      -0.85100000
H        0.09840000      -2.86190000      -1.39940000
H        1.51390000      -2.04730000      -4.52210000
H        2.81200000      -0.80840000      -4.16520000
H        3.86620000      -2.42980000      -2.77850000
