18
Properties=species:S:1:pos:R:3 gdb_106174=T pbc="F F F"
C        0.46480000       1.02420000      -0.69400000
N       -0.31270000       0.55860000       0.44850000
C       -1.43680000      -0.25190000       0.17230000
C       -1.79860000      -1.66320000      -0.30880000
O       -2.73540000      -1.88700000       0.74190000
C       -2.65090000      -0.47830000       1.11650000
C       -3.79780000       0.24130000       0.42600000
O       -3.55910000       0.01200000      -0.97140000
C       -2.22260000      -0.41840000      -1.08830000
H        1.29420000       1.63710000      -0.33070000
H        0.88530000       0.21850000      -1.31960000
H       -0.16250000       1.65350000      -1.33170000
H        0.29030000       0.11690000       1.13400000
H       -1.25360000      -2.51350000      -0.70400000
H       -2.54210000      -0.33050000       2.19190000
H       -4.77160000      -0.18240000       0.68790000
H       -3.79240000       1.31940000       0.65040000
H       -1.78720000      -0.24010000      -2.06470000
