15
Properties=species:S:1:pos:R:3 gdb_47283=T pbc="F F F"
O       -0.02470000       0.84230000       1.55890000
C       -0.08260000       1.43150000       0.49990000
C       -1.39870000       1.99380000      -0.01580000
C       -1.51330000       2.04330000      -1.53430000
O       -0.86610000       3.18860000      -2.09940000
C        0.47670000       3.31570000      -2.10500000
O        0.97660000       4.25260000      -2.67250000
C        1.35480000       2.32240000      -1.41500000
C        1.15040000       1.58110000      -0.31730000
H       -2.19580000       1.37960000       0.41260000
H       -1.53180000       3.00850000       0.38110000
H       -1.12660000       1.12750000      -1.99630000
H       -2.55770000       2.15730000      -1.83020000
H        2.35070000       2.34120000      -1.84720000
H        1.98430000       1.01550000       0.09030000
