21
Properties=species:S:1:pos:R:3 gdb_116419=T pbc="F F F"
O        0.10110000       1.41730000      -0.03690000
C        0.04850000       0.00840000      -0.06970000
C       -1.37990000      -0.54250000       0.04440000
C       -1.43040000      -2.07840000      -0.11640000
C       -2.84340000      -2.64340000       0.06990000
C       -3.41630000      -2.25330000       1.43740000
C       -3.41240000      -0.72400000       1.62850000
C       -2.04750000      -0.11740000       1.35140000
O       -1.52790000       0.66720000       2.12090000
H       -0.22660000       1.65870000       0.83970000
H        0.47800000      -0.30390000      -1.02830000
H        0.66690000      -0.43920000       0.72550000
H       -1.98490000      -0.09440000      -0.75930000
H       -1.03460000      -2.34680000      -1.10220000
H       -0.75730000      -2.53600000       0.62200000
H       -3.49890000      -2.26250000      -0.72510000
H       -2.82690000      -3.73360000      -0.03430000
H       -4.43540000      -2.63540000       1.55630000
H       -2.81430000      -2.71630000       2.23000000
H       -4.11700000      -0.27360000       0.91420000
H       -3.72530000      -0.42860000       2.63280000
