19
Properties=species:S:1:pos:R:3 gdb_38740=T pbc="F F F"
C       -0.02920000       1.54960000       0.06670000
C        1.51730000       1.46300000      -0.00530000
C        2.05520000       1.11680000       1.39480000
C        1.65400000      -0.35750000       1.66150000
O        0.25840000      -0.52870000       1.30270000
C       -0.01040000       0.00710000       0.01730000
C        1.33670000       0.10470000      -0.80750000
C        2.30900000      -0.98560000      -0.53350000
C        2.48200000      -1.23970000       0.76650000
H       -0.47650000       2.00600000       0.95370000
H       -0.46590000       1.98130000      -0.83860000
H        2.07150000       2.26810000      -0.49070000
H        3.14320000       1.21260000       1.45430000
H        1.61530000       1.78400000       2.14410000
H        1.72320000      -0.62710000       2.71600000
H       -0.85610000      -0.54470000      -0.39890000
H        1.13990000       0.29150000      -1.86360000
H        2.79190000      -1.53780000      -1.33290000
H        3.13160000      -2.00870000       1.16840000
