15
Properties=species:S:1:pos:R:3 gdb_67178=T pbc="F F F"
N       -0.22310000       1.45500000       0.06830000
C       -0.00400000       0.06750000      -0.01620000
C       -0.97970000      -1.09810000       0.06150000
N       -0.39580000      -1.73350000      -1.11210000
C        0.80520000      -0.83520000      -1.01560000
C        1.82260000      -1.54780000      -0.13760000
O        2.88630000      -2.02350000      -0.40720000
O        1.25010000      -1.66180000       1.11160000
C        0.07920000      -0.87130000       1.14490000
H        0.61310000       1.96450000       0.33430000
H       -0.57590000       1.84280000      -0.79990000
H       -2.04290000      -1.13170000       0.26930000
H       -0.18350000      -2.72550000      -0.99920000
H        1.18850000      -0.46120000      -1.96300000
H       -0.20800000      -0.56310000       2.14100000
