16
Properties=species:S:1:pos:R:3 gdb_41186=T pbc="F F F"
C        0.06640000       1.56410000      -0.18230000
O        1.52570000       1.44710000       0.10070000
C        1.16310000       0.29740000       0.92890000
C        1.26000000      -1.25900000       1.14260000
C       -0.35600000      -1.12450000       1.11900000
C       -0.05360000       0.04040000       0.10990000
N        0.26980000      -0.62610000      -1.17260000
C        1.11300000      -1.56370000      -1.11530000
O        1.71540000      -1.99490000       0.02230000
H       -0.40930000       2.23560000       0.54020000
H       -0.11500000       1.86610000      -1.21500000
H        0.91380000       0.68900000       1.92480000
H        1.76400000      -1.66700000       2.01810000
H       -0.89930000      -1.99000000       0.73480000
H       -0.74190000      -0.81490000       2.08940000
H        1.42810000      -2.13490000      -1.98360000
