18
Properties=species:S:1:pos:R:3 gdb_18170=T pbc="F F F"
O       -0.14780000       1.52360000      -0.06530000
C        0.04520000       0.12310000       0.11620000
C       -1.31300000      -0.53720000      -0.03480000
C       -1.97230000      -0.65390000      -1.44630000
C       -2.17610000      -2.15820000      -1.21670000
C       -0.86360000      -2.83880000      -0.98730000
O        0.32980000      -2.44490000      -1.61110000
C       -1.43590000      -2.05710000       0.14780000
H        0.71730000       1.94230000      -0.08640000
H        0.74620000      -0.28770000      -0.61920000
H        0.44520000      -0.09540000       1.12110000
H       -2.00820000      -0.03020000       0.64170000
H       -2.90530000      -0.09440000      -1.52540000
H       -1.33250000      -0.39150000      -2.29390000
H       -3.07200000      -2.71490000      -1.46740000
H       -0.94730000      -3.91730000      -0.84380000
H        0.25070000      -2.64360000      -2.55030000
H       -1.66720000      -2.54150000       1.09020000
