19
Properties=species:S:1:pos:R:3 gdb_72928=T pbc="F F F"
O       -0.09470000       1.37720000      -0.00340000
C        0.03280000      -0.01840000      -0.02020000
C       -1.19790000      -0.72870000       0.56360000
O       -0.37820000      -1.50040000       1.47410000
C        0.82270000      -0.79500000       1.08070000
C        1.81790000      -1.57750000       0.20820000
C        0.90750000      -2.10750000      -0.93390000
C        0.74100000      -0.59680000      -1.26080000
C        2.23480000      -0.45660000      -0.79870000
H        0.67400000       1.76250000      -0.43700000
H       -1.85820000      -0.03660000       1.09850000
H       -1.78930000      -1.36270000      -0.10710000
H        1.26950000      -0.23910000       1.91040000
H        2.55220000      -2.21190000       0.70430000
H        1.47850000      -2.62550000      -1.70710000
H        0.03070000      -2.69300000      -0.65610000
H        0.39150000      -0.24780000      -2.23340000
H        2.57310000       0.50440000      -0.39400000
H        2.94550000      -0.80910000      -1.54850000
