18
Properties=species:S:1:pos:R:3 gdb_79827=T pbc="F F F"
O        0.12710000       1.48110000       0.04110000
C        0.02400000       0.07470000      -0.02630000
C       -1.34500000      -0.61620000       0.01340000
C       -0.95980000      -1.47920000      -1.14860000
N       -2.07480000      -0.55910000      -1.26040000
C       -1.72210000       0.55490000      -2.18280000
C       -0.22340000       0.40620000      -2.52370000
C        0.26930000      -0.54320000      -1.42710000
O        1.55480000      -1.07110000      -1.57110000
H       -0.03300000       1.75550000       0.94920000
H        0.70040000      -0.41640000       0.68640000
H       -1.91560000      -0.85880000       0.90400000
H       -1.05830000      -2.54500000      -1.31660000
H       -2.35820000       0.46780000      -3.06790000
H       -1.93580000       1.50810000      -1.69620000
H       -0.07630000      -0.05830000      -3.50770000
H        0.31320000       1.35650000      -2.50240000
H        1.66740000      -1.34530000      -2.48770000
