17
Properties=species:S:1:pos:R:3 gdb_3560=T pbc="F F F"
C       -0.01820000       1.52750000       0.01810000
C        1.30820000       0.81210000      -0.06400000
C        0.01050000       0.02030000      -0.05530000
C        0.12490000      -0.69350000      -1.41800000
C        1.61950000      -1.17160000      -1.35450000
C        1.87740000       0.37580000      -1.42970000
C        0.65330000       0.40080000      -2.38500000
H       -0.26200000       1.93760000       0.99390000
H       -0.39270000       2.13230000      -0.79900000
H        1.97720000       0.83130000       0.78900000
H       -0.30430000      -0.56070000       0.80410000
H       -0.68630000      -1.36400000      -1.70320000
H        1.94450000      -1.69420000      -0.45030000
H        1.94340000      -1.71210000      -2.24880000
H        2.84180000       0.78870000      -1.72660000
H        0.90290000      -0.01900000      -3.36160000
H        0.08930000       1.32350000      -2.52660000
