21
Properties=species:S:1:pos:R:3 gdb_91536=T pbc="F F F"
C       -0.38630000       1.27790000      -0.66020000
C        0.06710000      -0.15170000      -0.40400000
C        1.53310000      -0.56940000      -0.79770000
C        1.76430000      -0.97200000       0.65840000
N        1.54460000       0.25840000       1.46570000
C        0.38260000      -0.56900000       1.05380000
C       -0.60160000      -1.14250000       2.00300000
C       -0.37290000      -1.22440000       3.46740000
N       -1.35830000      -0.27050000       2.93290000
H        0.30280000       1.98530000      -0.19120000
H       -0.42060000       1.49200000      -1.73390000
H       -1.38930000       1.45260000      -0.25500000
H       -0.64470000      -0.86350000      -0.83540000
H        1.56230000      -1.40680000      -1.49810000
H        2.18150000       0.23340000      -1.15840000
H        2.38780000      -1.76880000       1.04670000
H        1.77200000       0.01360000       2.42910000
H       -1.23200000      -1.91050000       1.55750000
H       -0.79400000      -2.05550000       4.02640000
H        0.55500000      -0.83990000       3.88300000
H       -0.94330000       0.65930000       2.91640000
