21
Properties=species:S:1:pos:R:3 gdb_81374=T pbc="F F F"
C       -0.16380000       1.46860000      -0.02970000
C        0.01570000      -0.04500000      -0.04050000
C        1.23740000      -0.60270000      -0.82480000
C        2.07500000      -0.44450000       0.47310000
C        0.72250000      -0.64880000       1.21880000
C        0.43270000      -2.15730000       1.28420000
O       -0.93130000      -2.43960000       1.56000000
C        0.95960000      -2.82920000      -0.01130000
O        0.99480000      -1.96570000      -1.14930000
H        0.75230000       1.99550000       0.25440000
H       -0.46150000       1.83300000      -1.01900000
H       -0.94340000       1.76140000       0.68190000
H       -0.92710000      -0.51630000      -0.34360000
H        1.55940000      -0.11150000      -1.74630000
H        2.88970000      -1.14900000       0.65550000
H        2.45950000       0.57080000       0.57900000
H        0.55790000      -0.16590000       2.18500000
H        0.97290000      -2.59680000       2.13060000
H       -1.46620000      -2.04150000       0.86500000
H        1.96770000      -3.22690000       0.17370000
H        0.31450000      -3.67350000      -0.26950000
