12
Properties=species:S:1:pos:R:3 gdb_20480=T pbc="F F F"
C        0.05030000       1.39360000      -0.13070000
O        1.44940000       1.80130000      -0.01370000
C        1.98070000       0.70690000       0.58880000
C        1.14950000      -0.36650000       0.59370000
O       -0.03110000      -0.03230000      -0.05240000
C        1.88190000      -1.41290000       1.16640000
N        3.10760000      -0.97640000       1.50320000
N        3.15360000       0.33920000       1.12430000
H       -0.49890000       1.84560000       0.70840000
H       -0.33090000       1.73250000      -1.09490000
H        1.61140000      -2.43840000       1.36090000
H        3.98230000       0.87670000       1.30790000
