11
Properties=species:S:1:pos:R:3 gdb_23998=T pbc="F F F"
N        0.19440000      -1.08500000      -0.00530000
C        0.07550000       0.06660000       0.00230000
C       -0.10570000       1.46730000       0.01210000
C       -1.23820000       2.23880000       0.03230000
C       -0.79670000       3.58590000       0.03280000
C        0.57280000       3.53730000       0.01290000
O        1.00740000       2.24870000      -0.00000000
C        1.54800000       4.55890000       0.00400000
N        2.32570000       5.41660000      -0.00280000
H       -2.25320000       1.87610000       0.04510000
H       -1.40000000       4.47900000       0.04610000
