17
Properties=species:S:1:pos:R:3 gdb_35503=T pbc="F F F"
N       -0.81570000      -0.72470000      -1.25340000
C       -0.49590000       0.23100000      -0.68740000
C       -0.08410000       1.45780000      -0.00160000
N       -0.00430000       1.36520000       1.47150000
C        1.28900000       2.09820000       1.50360000
C        2.42100000       1.32070000       2.19800000
C        2.96550000       0.45900000       1.08120000
C        2.43600000       0.74360000      -0.10940000
C        1.43190000       1.85850000      -0.03160000
H       -0.71110000       2.27970000      -0.37340000
H       -0.77670000       1.79470000       1.96720000
H        1.20890000       3.14300000       1.82040000
H        3.19270000       1.98380000       2.61130000
H        2.02610000       0.72620000       3.03010000
H        3.71400000      -0.30650000       1.25430000
H        2.68450000       0.24930000      -1.04120000
H        1.65180000       2.70240000      -0.68890000
