17
Properties=species:S:1:pos:R:3 gdb_61087=T pbc="F F F"
C       -0.00450000       1.22350000       0.00590000
C       -0.02000000      -0.27470000       0.30830000
C       -1.42820000      -0.77480000       0.64950000
O       -2.33640000      -0.06680000       0.99490000
N        0.52830000      -1.20110000      -0.67080000
C        1.13400000      -0.76360000      -1.69240000
N        1.64650000      -1.65370000      -2.62760000
C        2.32210000      -1.26760000      -3.76350000
O        2.54610000      -0.12260000      -4.07500000
H        1.01550000       1.61300000      -0.05140000
H       -0.51750000       1.44230000      -0.93600000
H       -0.53660000       1.75160000       0.79920000
H        0.54440000      -0.45210000       1.24200000
H       -1.53450000      -1.87750000       0.56380000
H        1.32420000       0.27660000      -1.95640000
H        1.50300000      -2.63650000      -2.44130000
H        2.63990000      -2.13990000      -4.36450000
