21
Properties=species:S:1:pos:R:3 gdb_102124=T pbc="F F F"
O        0.01900000       1.46690000       0.02330000
C        0.04080000       0.05010000       0.10470000
C       -1.40360000      -0.43230000       0.02240000
C       -2.02610000       0.00200000      -1.29330000
O       -3.16070000       0.37980000      -1.42490000
C       -1.50070000      -1.96050000       0.13500000
C       -1.14480000      -2.63700000       1.49270000
C       -2.33550000      -3.60870000       1.27340000
C       -2.90790000      -2.61670000       0.22550000
H        0.92510000       1.78910000       0.03020000
H        0.62180000      -0.38910000      -0.72420000
H        0.49730000      -0.29630000       1.04370000
H       -1.98770000       0.02660000       0.82800000
H       -1.34910000      -0.10340000      -2.17540000
H       -0.92340000      -2.42600000      -0.67390000
H       -0.14590000      -3.06600000       1.60350000
H       -1.32740000      -1.95750000       2.33160000
H       -2.01310000      -4.54680000       0.81280000
H       -2.95820000      -3.84540000       2.13880000
H       -3.63620000      -1.92900000       0.66460000
H       -3.33500000      -3.02790000      -0.69160000
