19
Properties=species:S:1:pos:R:3 gdb_26677=T pbc="F F F"
C        0.05260000       1.51380000       0.01450000
C        0.03630000       0.01680000       0.00490000
C       -0.01820000      -0.78830000      -1.10910000
N       -0.07340000      -0.54390000      -2.50170000
N       -0.01400000      -2.10620000      -0.67180000
C        0.04180000      -2.12860000       0.68780000
O        0.05420000      -3.34390000       1.30130000
C        0.07510000      -0.83810000       1.16460000
C        0.13880000      -0.40620000       2.59790000
H        0.95860000       1.91450000       0.48690000
H        0.01240000       1.90900000      -1.00550000
H       -0.80020000       1.93310000       0.56360000
H       -0.89680000      -0.01460000      -2.76800000
H        0.73690000      -0.03330000      -2.83610000
H       -0.04770000      -2.90910000      -1.27540000
H        0.09610000      -3.19710000       2.25110000
H        1.03790000       0.18430000       2.81550000
H       -0.72340000       0.20860000       2.88600000
H        0.15440000      -1.26230000       3.28410000
