16
Properties=species:S:1:pos:R:3 gdb_66967=T pbc="F F F"
N        0.08590000       1.42250000      -0.09810000
C        0.06540000       0.01280000      -0.03330000
C       -0.12240000      -0.88650000      -1.25540000
N        0.60810000      -2.14140000      -0.97820000
C        0.00760000      -2.03810000       0.39630000
C       -1.08190000      -1.00890000      -0.10130000
C        0.81190000      -0.84860000       1.00370000
C        2.26870000      -0.91060000       1.00890000
N        3.42370000      -0.94200000       1.04040000
H        0.04960000       1.78720000      -1.03990000
H       -0.62730000       1.86660000       0.46630000
H       -0.24920000      -0.47590000      -2.24990000
H        0.11630000      -2.89010000      -1.46530000
H       -0.14220000      -2.95490000       0.95960000
H       -2.15130000      -0.90110000       0.02000000
H        0.44940000      -0.61170000       2.00800000
