17
Properties=species:S:1:pos:R:3 gdb_85188=T pbc="F F F"
O       -0.00120000       1.41160000      -0.24310000
C        0.01860000       0.04980000       0.09060000
C        0.02280000      -0.28320000       1.61830000
C       -1.37980000      -0.87780000       1.46170000
O       -2.20550000      -1.28420000       2.22790000
C       -1.35290000      -0.71890000      -0.07760000
C       -2.47480000       0.03890000      -0.73240000
C       -3.80450000       0.16130000      -0.11830000
O       -2.86780000       1.24670000      -0.05750000
H       -0.82120000       1.79630000       0.09260000
H        0.84830000      -0.38950000      -0.46590000
H        0.76950000      -1.01630000       1.93990000
H        0.08440000       0.58840000       2.27680000
H       -1.22690000      -1.69500000      -0.56150000
H       -2.39480000       0.15220000      -1.81340000
H       -4.66760000       0.34420000      -0.75530000
H       -3.99840000      -0.33820000       0.82690000
