16
Properties=species:S:1:pos:R:3 gdb_82039=T pbc="F F F"
O        0.05420000       1.35050000       0.17250000
C        0.02040000      -0.02510000       0.04720000
C       -1.34310000      -0.72260000       0.04970000
N       -2.08220000      -0.07050000      -1.05090000
C       -1.17080000      -1.19760000      -1.35540000
C        0.22940000      -0.59080000      -1.47460000
O        0.41160000       0.36260000      -2.46060000
C        1.33940000      -1.60040000      -1.47920000
O        2.30890000      -1.47770000      -2.19190000
H       -0.55570000       1.69420000      -0.49550000
H        0.73310000      -0.44930000       0.75850000
H       -1.85810000      -1.18730000       0.88080000
H       -3.03220000      -0.43750000      -1.05460000
H       -1.54420000      -2.09330000      -1.83680000
H        1.30930000       0.22220000      -2.80320000
H        1.24190000      -2.44570000      -0.76780000
