19
Properties=species:S:1:pos:R:3 gdb_98989=T pbc="F F F"
C        0.09710000       1.42150000      -0.69590000
N        0.25980000       0.04050000      -1.09900000
C        0.82080000      -0.88410000      -0.28730000
O        1.20470000      -0.67030000       0.85100000
C        0.90100000      -2.31820000      -0.84610000
C        1.07570000      -2.52930000      -2.33150000
N        0.49090000      -1.81470000      -3.20540000
O        1.89730000      -3.58510000      -2.54680000
C        2.14500000      -3.97200000      -3.89250000
H        0.41080000       1.50420000       0.34530000
H        0.71130000       2.09370000      -1.30710000
H       -0.94890000       1.73630000      -0.78280000
H        0.04510000      -0.25330000      -2.04680000
H        1.71110000      -2.81580000      -0.31360000
H       -0.02630000      -2.82400000      -0.54700000
H        0.69190000      -2.08600000      -4.16430000
H        2.63580000      -3.16840000      -4.45430000
H        2.81060000      -4.83370000      -3.83960000
H        1.21760000      -4.25880000      -4.40230000
