20
Properties=species:S:1:pos:R:3 gdb_109549=T pbc="F F F"
C       -0.11510000       1.56780000       0.10000000
C        0.07490000       0.04720000       0.08570000
C        0.70960000      -0.48410000      -1.19490000
C        0.89270000      -2.03630000      -1.28620000
O        0.48220000      -2.76290000      -0.15560000
C       -0.10760000      -1.96970000      -2.46120000
O       -0.65370000      -2.77770000      -3.17300000
N       -0.17160000      -0.60710000      -2.37750000
C       -0.83420000       0.35060000      -3.22770000
H        0.83690000       2.08840000      -0.05340000
H       -0.80460000       1.90290000      -0.68130000
H       -0.52240000       1.89920000       1.05990000
H        0.72350000      -0.24950000       0.91850000
H       -0.87850000      -0.46500000       0.24860000
H        1.62840000       0.07260000      -1.42460000
H        1.90310000      -2.32550000      -1.60660000
H        0.01540000      -3.54440000      -0.47260000
H       -1.25680000      -0.19750000      -4.07370000
H       -1.64740000       0.87140000      -2.70970000
H       -0.12690000       1.09860000      -3.60520000
