15
Properties=species:S:1:pos:R:3 gdb_132762=T pbc="F F F"
C        0.02210000       1.52300000      -0.01950000
C        0.01010000       0.01710000      -0.02310000
C        0.13300000      -0.72670000      -1.20260000
O        0.27030000      -0.13920000      -2.41410000
C        0.11600000      -2.12330000      -1.15220000
C       -0.02420000      -2.72600000       0.08460000
N       -0.14450000      -2.04880000       1.23540000
C       -0.12350000      -0.74090000       1.14170000
F       -0.24430000      -0.07740000       2.29590000
H        0.96120000       1.92490000      -0.42220000
H       -0.80110000       1.93940000      -0.61490000
H       -0.08590000       1.90210000       0.99650000
H        0.26700000       0.81880000      -2.31210000
H        0.21090000      -2.69980000      -2.06360000
H       -0.04210000      -3.80920000       0.16660000
