16
Properties=species:S:1:pos:R:3 gdb_125358=T pbc="F F F"
C       -0.00720000       1.52800000      -0.00500000
C       -0.00640000       0.03150000       0.02050000
C       -0.03320000      -0.80090000      -1.06920000
N       -0.02310000      -2.14540000      -0.66570000
C        0.01060000      -2.13890000       0.69590000
C        0.02220000      -0.83180000       1.17470000
C        0.05720000      -1.00080000       2.58420000
N        0.06580000      -2.28390000       2.92770000
N        0.03690000      -2.98670000       1.74890000
H        0.88580000       1.94090000       0.47950000
H       -0.03290000       1.90530000      -1.03140000
H       -0.87480000       1.94070000       0.52360000
H       -0.05920000      -0.55960000      -2.12070000
H       -0.03800000      -2.93860000      -1.27950000
H        0.07640000      -0.25470000       3.36520000
H        0.03740000      -3.98960000       1.78210000
