18
Properties=species:S:1:pos:R:3 gdb_29817=T pbc="F F F"
C       -0.00370000       1.45590000       0.06480000
N       -0.01150000      -0.00200000       0.00430000
C       -1.17870000      -0.70500000       0.08090000
C       -1.22570000      -2.06670000       0.02800000
C       -2.52480000      -2.82280000       0.11430000
C        0.02320000      -2.74120000      -0.11390000
C        1.19850000      -2.06060000      -0.19220000
C        1.25550000      -0.61600000      -0.13670000
O        2.26220000       0.07800000      -0.19900000
H        0.60340000       1.79190000       0.90890000
H        0.44430000       1.86550000      -0.84370000
H       -1.02710000       1.81690000       0.17290000
H       -2.07590000      -0.10530000       0.18770000
H       -2.69730000      -3.43160000      -0.78110000
H       -2.53790000      -3.50530000       0.97240000
H       -3.37450000      -2.14250000       0.22020000
H        0.02710000      -3.82750000      -0.15990000
H        2.15080000      -2.56500000      -0.30000000
