17
Properties=species:S:1:pos:R:3 gdb_20878=T pbc="F F F"
C       -0.05110000       1.57160000       0.14130000
C       -0.08930000       0.05050000       0.30420000
C       -1.36150000      -0.57410000      -0.29780000
C       -1.41930000      -2.06230000      -0.13380000
N       -1.32680000      -2.84720000      -1.18270000
O       -1.39630000      -4.15180000      -0.69540000
C       -1.52980000      -4.10630000       0.63660000
C       -1.55210000      -2.82220000       1.06900000
H        0.86140000       1.99310000       0.57340000
H       -0.08270000       1.85730000      -0.91580000
H       -0.90540000       2.04550000       0.63750000
H        0.78720000      -0.40010000      -0.17590000
H       -0.02370000      -0.20980000       1.36800000
H       -2.24390000      -0.12480000       0.17560000
H       -1.41930000      -0.34470000      -1.36640000
H       -1.59890000      -5.06100000       1.13520000
H       -1.65120000      -2.46240000       2.07950000
