18
Properties=species:S:1:pos:R:3 gdb_11379=T pbc="F F F"
C       -0.00500000       1.28630000      -0.14110000
O       -0.08060000      -0.12720000       0.06050000
C       -1.31820000      -0.62410000       0.12530000
N       -2.40830000       0.03360000       0.02000000
C       -3.47460000      -0.96520000       0.17310000
C       -2.78610000      -2.36260000       0.04910000
C       -2.92950000      -2.98120000      -1.34310000
N       -1.39570000      -1.99010000       0.36480000
H        1.05870000       1.52550000      -0.16870000
H       -0.48730000       1.56800000      -1.08110000
H       -0.49830000       1.81780000       0.67690000
H       -3.95480000      -0.84980000       1.15360000
H       -4.25200000      -0.82830000      -0.58670000
H       -3.16370000      -3.06160000       0.80200000
H       -2.60200000      -2.27570000      -2.11430000
H       -2.33530000      -3.89710000      -1.43750000
H       -3.97480000      -3.24130000      -1.54070000
H       -0.65290000      -2.55560000      -0.02380000
