20
Properties=species:S:1:pos:R:3 gdb_39398=T pbc="F F F"
C        0.01500000       1.52260000      -0.07260000
N        1.21060000       0.67640000      -0.05990000
C        2.02130000       0.48690000       1.12960000
C        2.32650000      -1.04660000       1.30890000
O        1.65090000      -1.94050000       0.43430000
C        0.22660000      -1.95890000       0.36090000
C       -0.44190000      -0.84310000       1.19990000
C       -0.10140000       0.04730000      -0.00570000
C       -0.23350000      -1.17840000      -0.91750000
H       -0.25140000       2.06530000       0.83630000
H       -0.15060000       2.07670000      -0.99320000
H        2.96090000       1.03740000       1.01270000
H        1.53580000       0.87740000       2.03890000
H        3.38190000      -1.23520000       1.09760000
H        2.15280000      -1.32360000       2.35930000
H       -0.10800000      -2.99260000       0.49070000
H       -1.51960000      -1.01340000       1.27270000
H       -0.05360000      -0.61450000       2.19270000
H        0.43270000      -1.22100000      -1.77930000
H       -1.26350000      -1.42410000      -1.19390000
