18
Properties=species:S:1:pos:R:3 gdb_68624=T pbc="F F F"
N       -0.05480000       1.43590000       0.11850000
C        0.01160000       0.01680000       0.00220000
C        0.32450000      -0.83600000      -1.27370000
N       -0.40360000      -1.96200000      -0.57200000
C        0.53200000      -2.18140000       0.58070000
C        0.86050000      -0.72720000       1.04640000
C       -1.28970000      -0.86270000      -0.00350000
C       -2.00720000      -1.13270000       1.23230000
N       -2.56080000      -1.33150000       2.22770000
H        0.85470000       1.84280000       0.30510000
H       -0.42920000       1.87270000      -0.71670000
H       -0.22740000      -0.51980000      -2.16300000
H        1.36560000      -1.05410000      -1.52560000
H        0.03670000      -2.77680000       1.34920000
H        1.40410000      -2.73170000       0.22240000
H        1.92080000      -0.47170000       0.95750000
H        0.53550000      -0.51390000       2.06730000
H       -1.99820000      -0.54470000      -0.77280000
