15
Properties=species:S:1:pos:R:3 gdb_5233=T pbc="F F F"
C       -0.01940000       1.46570000       0.10920000
C       -0.03420000      -0.02660000      -0.15400000
O       -1.29890000      -0.53900000       0.31910000
C       -1.52450000      -1.83480000       0.12510000
C       -2.60630000      -2.53040000      -0.30290000
N       -2.32510000      -3.89200000      -0.21480000
C       -1.11960000      -3.94590000       0.23730000
O       -0.55050000      -2.73220000       0.48060000
H        0.92720000       1.89400000      -0.23280000
H       -0.83730000       1.96120000      -0.42070000
H       -0.12620000       1.66910000       1.17820000
H        0.05790000      -0.24910000      -1.22470000
H        0.77980000      -0.53470000       0.37370000
H       -3.55110000      -2.15340000      -0.65580000
H       -0.50800000      -4.81170000       0.43430000
