16
Properties=species:S:1:pos:R:3 gdb_105724=T pbc="F F F"
N        0.12310000       1.44100000      -0.01640000
C       -0.02290000       0.00670000       0.09740000
C       -1.47920000      -0.54250000      -0.01210000
C       -1.56310000      -2.08560000       0.21830000
O       -2.42000000      -2.22020000       1.37430000
C       -2.73600000      -0.96290000       1.74310000
N       -2.30480000       0.02890000       1.07940000
C       -2.04270000      -0.15420000      -1.31380000
N       -2.44220000       0.14120000      -2.35720000
H       -0.13870000       1.75310000      -0.94690000
H       -0.50600000       1.89910000       0.63670000
H        0.59000000      -0.48280000      -0.66820000
H        0.35120000      -0.31770000       1.07590000
H       -2.01100000      -2.63140000      -0.61300000
H       -0.58790000      -2.51810000       0.46010000
H       -3.36330000      -0.89690000       2.62490000
