18
Properties=species:S:1:pos:R:3 gdb_14338=T pbc="F F F"
C       -0.16950000       1.52260000       0.00670000
C       -0.02870000       0.03340000      -0.02520000
C       -0.10450000      -0.76140000      -1.09800000
C        0.10480000      -2.20740000      -0.75810000
O        1.43460000      -2.71090000      -1.07660000
C        1.83650000      -2.61350000       0.30560000
C        0.41970000      -2.19790000       0.76100000
C        0.21830000      -0.75440000       1.25040000
H        0.73910000       1.99390000       0.40270000
H       -0.36170000       1.93420000      -0.98740000
H       -0.98970000       1.82760000       0.66920000
H       -0.27790000      -0.41770000      -2.11220000
H       -0.66180000      -2.88300000      -1.15440000
H        2.20330000      -3.57390000       0.68700000
H        2.61220000      -1.85060000       0.46070000
H       -0.08870000      -2.94430000       1.37130000
H        1.08960000      -0.37310000       1.80090000
H       -0.63430000      -0.66450000       1.93740000
