17
Properties=species:S:1:pos:R:3 gdb_109575=T pbc="F F F"
C        0.26250000       0.87920000       0.55680000
O       -0.04240000      -0.37180000      -0.03870000
C       -1.41910000      -0.58160000      -0.23190000
C       -1.66230000      -2.03310000      -0.78340000
O       -0.59400000      -2.68850000      -1.37670000
C       -2.11810000      -2.52330000       0.63470000
O       -1.05730000      -3.23910000       1.24200000
C       -2.11100000      -1.03840000       1.08290000
O       -2.40600000      -0.49170000       2.10870000
H        1.35010000       0.93050000       0.64200000
H       -0.09050000       1.71010000      -0.07180000
H       -0.18710000       0.97640000       1.55250000
H       -1.88870000       0.25050000      -0.77670000
H       -2.49630000      -2.04400000      -1.48980000
H        0.11720000      -2.70480000      -0.72450000
H       -3.07380000      -3.05970000       0.69700000
H       -1.16560000      -3.17810000       2.19770000
