22
Properties=species:S:1:pos:R:3 gdb_78118=T pbc="F F F"
C       -0.20440000       1.29410000      -0.10200000
N        0.07760000      -0.12350000       0.09840000
C        1.49880000      -0.47710000      -0.09290000
C        0.90330000      -0.47240000       1.27880000
C        1.09000000       0.40440000       2.47940000
C        0.89460000      -2.01220000       1.30420000
C        1.57670000      -2.00900000      -0.12060000
C        0.86300000      -2.73370000      -1.24960000
O        2.95170000      -2.35830000      -0.05150000
H        0.62920000       1.97350000       0.13700000
H       -0.46780000       1.44890000      -1.15320000
H       -1.06560000       1.58400000       0.50860000
H        2.18470000       0.21300000      -0.57220000
H        1.20910000       1.45790000       2.21610000
H        0.23210000       0.32140000       3.15840000
H        1.98180000       0.09810000       3.03560000
H        1.57750000      -2.43220000       2.04660000
H       -0.09420000      -2.47140000       1.38660000
H       -0.16090000      -2.36520000      -1.34500000
H        1.39110000      -2.57780000      -2.19580000
H        0.82180000      -3.81320000      -1.05530000
H        3.00560000      -3.31700000       0.02670000
