13
Properties=species:S:1:pos:R:3 gdb_14566=T pbc="F F F"
C       -0.06160000      -1.19210000       0.40640000
C       -0.02150000      -0.02760000       0.11880000
C        0.01350000       1.39220000      -0.23500000
C        1.36320000       1.96020000      -0.23170000
C        2.46740000       2.43220000      -0.22770000
C        3.81500000       2.99590000      -0.22360000
C        3.88940000       4.30530000       0.43870000
N        3.96080000       5.33530000       0.95520000
H       -0.09530000      -2.22210000       0.66270000
H       -0.44000000       1.53390000      -1.22540000
H       -0.61690000       1.95920000       0.46360000
H        4.51190000       2.31580000       0.28270000
H        4.18920000       3.10960000      -1.24920000
