16
Properties=species:S:1:pos:R:3 gdb_10896=T pbc="F F F"
C       -0.06870000       1.58340000       0.04870000
C        0.02500000       0.06550000      -0.02020000
C        1.12630000      -0.59680000      -0.90940000
O        1.32230000      -0.63250000      -2.08750000
C        1.72230000      -1.30440000       0.30130000
O        2.01270000      -0.23390000       1.23450000
C        0.66610000      -0.70210000       1.16220000
C        0.01090000      -1.22610000       2.39790000
H        0.86880000       2.00580000       0.41870000
H       -0.26230000       1.99570000      -0.94610000
H       -0.88090000       1.90400000       0.70920000
H       -0.93470000      -0.38160000      -0.31210000
H        2.29730000      -2.21860000       0.39460000
H       -0.32530000      -0.40160000       3.03610000
H       -0.86380000      -1.83260000       2.14350000
H        0.71130000      -1.83720000       2.97260000
