17
Properties=species:S:1:pos:R:3 gdb_70200=T pbc="F F F"
C       -0.14870000       1.53160000      -0.00600000
C       -0.00400000       0.03370000       0.02560000
C       -0.79230000      -0.79990000       1.02240000
C        0.71170000      -0.65280000       1.14490000
O        1.55930000      -1.75110000       0.86270000
C        1.51860000      -2.36250000      -0.34340000
O        2.22040000      -3.31040000      -0.56090000
C        0.53210000      -1.82360000      -1.37280000
O        0.23610000      -0.44620000      -1.27060000
H        0.73920000       1.98930000      -0.45220000
H       -1.01990000       1.81620000      -0.60410000
H       -0.27830000       1.93130000       1.00300000
H       -1.41800000      -0.28500000       1.74330000
H       -1.16940000      -1.77030000       0.71990000
H        1.13270000      -0.08770000       1.96810000
H        0.97450000      -1.98230000      -2.35730000
H       -0.37980000      -2.43940000      -1.32010000
