23
Properties=species:S:1:pos:R:3 gdb_103680=T pbc="F F F"
C       -0.06620000       1.62020000       0.02600000
C       -0.13450000       0.09660000      -0.12410000
C        0.71530000      -0.49340000      -1.26310000
C        0.31350000       0.05640000      -2.62890000
C        2.24560000      -0.47060000      -0.94340000
C        2.16540000      -1.95030000      -0.45520000
C        0.77690000      -2.05080000      -1.15960000
C        3.23510000      -2.87430000      -0.96010000
O        3.91870000      -3.59600000      -0.28010000
H        0.96460000       1.96770000       0.15440000
H       -0.48410000       2.13540000      -0.84390000
H       -0.63350000       1.94590000       0.90320000
H        0.17180000      -0.36860000       0.82180000
H       -1.17840000      -0.20650000      -0.28320000
H        0.50140000       1.13230000      -2.70550000
H        0.87890000      -0.43330000      -3.42890000
H       -0.75270000      -0.11070000      -2.82400000
H        2.85120000      -0.37610000      -1.85110000
H        2.60430000       0.25870000      -0.21340000
H        2.10380000      -2.04050000       0.63050000
H       -0.01630000      -2.54920000      -0.59650000
H        0.85550000      -2.52520000      -2.14370000
H        3.36150000      -2.84530000      -2.07100000
