18
Properties=species:S:1:pos:R:3 gdb_102876=T pbc="F F F"
C        0.09490000       1.26440000      -0.13930000
N       -0.17000000      -0.13940000       0.09760000
C        0.57550000      -0.74100000       0.90630000
O        0.35100000      -2.05200000       1.18480000
C        1.26160000      -2.70920000       2.04510000
C        0.65310000      -4.08460000       2.33030000
O        0.53770000      -4.84010000       1.14620000
C        2.64670000      -2.85890000       1.41930000
O        2.99740000      -2.31010000       0.41130000
H        0.94020000       1.66610000       0.44260000
H        0.30500000       1.42170000      -1.20300000
H       -0.79890000       1.85150000       0.09980000
H        1.41380000      -0.29600000       1.45910000
H        1.38420000      -2.16200000       2.99630000
H        1.30700000      -4.64390000       3.00740000
H       -0.31450000      -3.94140000       2.83200000
H        0.02860000      -4.30760000       0.52270000
H        3.32850000      -3.51880000       2.00150000
