23
Properties=species:S:1:pos:R:3 gdb_59660=T pbc="F F F"
C       -0.02410000       1.63200000       0.05490000
C        0.00570000       0.10830000       0.12320000
O        0.57530000      -0.28090000       1.37750000
C       -1.36670000      -0.52400000      -0.03130000
C       -2.15930000      -0.53630000      -1.36510000
C       -2.68170000      -1.95120000      -0.98430000
C       -1.48380000      -2.07270000       0.00630000
C       -0.30030000      -2.83710000      -0.58140000
O       -1.74970000      -2.50970000       1.33370000
H        0.97670000       2.03470000       0.23510000
H       -0.36170000       1.97380000      -0.92930000
H       -0.69650000       2.03760000       0.81780000
H        0.66060000      -0.26110000      -0.68330000
H        0.02700000      -0.98000000       1.75210000
H       -2.01790000      -0.14300000       0.76570000
H       -2.89910000       0.25180000      -1.51350000
H       -1.49910000      -0.56290000      -2.23730000
H       -3.62400000      -1.89850000      -0.43360000
H       -2.76500000      -2.70070000      -1.77590000
H       -0.06900000      -2.50780000      -1.59840000
H        0.59330000      -2.70570000       0.03510000
H       -0.53650000      -3.90760000      -0.63420000
H       -1.70290000      -3.47210000       1.35920000
