15
Properties=species:S:1:pos:R:3 gdb_16137=T pbc="F F F"
O       -0.14700000       0.01940000       0.18730000
C        0.02270000       1.14960000      -0.19800000
C        1.29480000       1.89950000      -0.03870000
C        1.24960000       3.37120000       0.28720000
N        1.61780000       2.95490000      -1.05250000
C        3.07920000       2.84620000      -1.29060000
C        3.57860000       1.76010000      -0.36200000
C        2.56950000       1.21550000       0.31570000
H       -0.78230000       1.73140000      -0.69870000
H        0.29410000       3.88640000       0.35290000
H        2.01790000       3.72160000       0.97330000
H        3.24760000       2.59090000      -2.34460000
H        3.55750000       3.81820000      -1.11730000
H        4.62440000       1.48950000      -0.27920000
H        2.61450000       0.39670000       1.02000000
