17
Properties=species:S:1:pos:R:3 gdb_8132=T pbc="F F F"
C       -0.12350000       1.53690000       0.14860000
C        0.00790000       0.04470000      -0.02280000
C       -0.82310000      -0.90040000       0.76980000
N        0.59510000      -0.72090000       1.12000000
C        1.44940000      -1.77670000       0.57710000
C        1.29640000      -1.77940000      -0.95320000
O        1.70910000      -2.61910000      -1.70710000
C        0.54010000      -0.49950000      -1.33580000
H        0.82400000       2.04090000      -0.07360000
H       -0.88590000       1.94240000      -0.52590000
H       -0.40500000       1.78270000       1.17560000
H       -1.52620000      -0.52020000       1.50550000
H       -1.12490000      -1.83950000       0.30550000
H        2.49830000      -1.56430000       0.82140000
H        1.21030000      -2.75960000       0.99470000
H       -0.22630000      -0.71810000      -2.08430000
H        1.25260000       0.19680000      -1.79690000
