16
Properties=species:S:1:pos:R:3 gdb_51905=T pbc="F F F"
O       -0.17400000       0.01290000       0.03070000
C       -0.10930000       1.19870000       0.07160000
O        1.07350000       1.86310000      -0.08400000
C        1.05770000       3.22880000      -0.02340000
N        2.12780000       3.86570000      -0.16510000
C        2.07120000       5.30160000      -0.09430000
C        3.13110000       5.97090000       0.81360000
O        3.61430000       6.78330000      -0.27340000
C        2.81040000       6.05870000      -1.22400000
H       -0.96570000       1.87740000       0.23400000
H        0.06500000       3.66500000       0.15220000
H        1.05610000       5.68580000       0.08200000
H        2.75380000       6.57430000       1.64660000
H        3.88730000       5.26490000       1.17760000
H        3.40910000       5.39580000      -1.86040000
H        2.20380000       6.72480000      -1.84740000
