16
Properties=species:S:1:pos:R:3 gdb_29380=T pbc="F F F"
N       -0.78460000       1.08760000       1.00550000
C       -0.24550000       0.00700000       0.30120000
C       -0.75400000      -0.66750000      -0.78460000
N        0.15480000      -1.68990000      -1.01810000
C        1.13410000      -1.58760000      -0.09190000
C        2.30550000      -2.52920000      -0.01120000
C        2.31890000      -3.52800000      -1.07450000
C        2.30460000      -4.34240000      -1.95870000
N        0.92720000      -0.57030000       0.72260000
H       -0.06820000       1.54540000       1.55430000
H       -1.25520000       1.75980000       0.41480000
H       -1.63690000      -0.53450000      -1.38510000
H        0.11670000      -2.38710000      -1.74330000
H        3.23430000      -1.94540000      -0.03640000
H        2.29740000      -3.02960000       0.96590000
H        2.31780000      -5.07220000      -2.73010000
