16
Properties=species:S:1:pos:R:3 gdb_129688=T pbc="F F F"
N        0.12340000       1.50590000       0.38380000
C        0.05840000       0.12520000       0.09560000
C       -1.09320000      -0.61390000      -0.12480000
N       -0.68180000      -1.89720000      -0.32000000
N        0.64400000      -2.05560000      -0.20740000
C        1.10280000      -0.82660000       0.02750000
C       -2.51350000      -0.23330000      -0.15610000
C       -3.39020000      -0.49930000      -1.31530000
O       -3.44250000      -1.32680000      -0.15180000
H        1.07460000       1.79880000       0.56950000
H       -0.23600000       2.07960000      -0.37060000
H       -1.28630000      -2.69540000      -0.42240000
H        2.16370000      -0.66000000       0.15110000
H       -2.77790000       0.59870000       0.49670000
H       -4.26760000       0.12400000      -1.48220000
H       -2.96690000      -0.96590000      -2.20310000
