21
Properties=species:S:1:pos:R:3 gdb_112869=T pbc="F F F"
C       -0.17300000       1.53030000       0.06480000
C        0.04330000       0.02080000      -0.00500000
C        0.98670000      -0.43700000      -1.14310000
C        1.38040000      -1.87400000      -0.76960000
C        2.70010000      -2.41330000      -1.33960000
O        2.92280000      -3.75750000      -0.98040000
C        1.38320000      -1.86160000       0.76220000
O        1.89420000      -2.70690000       1.46310000
C        0.68450000      -0.59640000       1.25200000
H        0.77610000       2.05440000       0.22710000
H       -0.60870000       1.91000000      -0.86540000
H       -0.84780000       1.80070000       0.88350000
H       -0.92910000      -0.46550000      -0.16340000
H        0.52090000      -0.36180000      -2.12920000
H        1.88080000       0.20240000      -1.15620000
H        0.58180000      -2.56980000      -1.06810000
H        2.67600000      -2.37190000      -2.43430000
H        3.52550000      -1.75800000      -1.00980000
H        2.82780000      -3.79510000      -0.01750000
H        1.46340000       0.06700000       1.65560000
H       -0.00330000      -0.81060000       2.07410000
