14
Properties=species:S:1:pos:R:3 gdb_3618=T pbc="F F F"
C       -0.01590000       1.48660000      -0.00870000
C        1.53120000       1.49920000       0.03930000
O        2.00560000       1.63150000       1.36930000
C        1.40830000       0.55840000       2.10760000
C        0.94710000      -0.44540000       1.06050000
C        1.44150000      -0.01670000      -0.25700000
N       -0.04250000      -0.01920000       0.02290000
H       -0.54480000       1.99190000       0.80620000
H       -0.42310000       1.81380000      -0.96850000
H        2.09000000       2.17500000      -0.60620000
H        2.16120000       0.12240000       2.77380000
H        0.57950000       0.92940000       2.72600000
H        0.86250000      -1.49390000       1.32110000
H        1.91690000      -0.61950000      -1.02030000
