22
Properties=species:S:1:pos:R:3 gdb_88588=T pbc="F F F"
C       -0.20680000       1.30170000      -0.42130000
C        0.26640000      -0.12000000      -0.20310000
C        1.21090000      -0.83100000      -1.12310000
C        1.79120000      -0.18740000      -2.34400000
C        3.00030000      -0.82340000      -3.01910000
C        1.64960000      -0.86600000      -3.68150000
O        0.93250000      -2.06600000      -3.71780000
N        1.61980000      -0.46870000       0.24260000
C        2.61630000       0.56910000       0.45730000
H       -0.45350000       1.77560000       0.53540000
H        0.52680000       1.93570000      -0.92270000
H       -1.11620000       1.30080000      -1.03190000
H       -0.49440000      -0.73730000       0.27650000
H        1.06740000      -1.90110000      -1.25160000
H        1.75340000       0.89470000      -2.38550000
H        3.77390000      -0.18400000      -3.43040000
H        3.35600000      -1.75450000      -2.58940000
H        1.48960000      -0.22010000      -4.54500000
H        1.38980000      -2.66650000      -4.31520000
H        2.60950000       1.40330000      -0.25870000
H        2.47930000       0.98730000       1.46020000
H        3.61040000       0.11170000       0.42020000
