17
Properties=species:S:1:pos:R:3 gdb_75123=T pbc="F F F"
C        0.29750000       1.18580000       0.92790000
C        0.05440000       0.02990000       0.00180000
N       -1.06140000      -0.55810000      -0.04600000
C       -1.38570000      -1.73150000      -0.84550000
C       -0.31460000      -2.79220000      -1.02350000
N       -0.53540000      -3.99450000      -0.70880000
O        0.89810000      -2.40710000      -1.54600000
C        1.08620000      -1.05000000      -1.85250000
O        1.20470000      -0.23770000      -0.70850000
H        1.13970000       0.96080000       1.59030000
H        0.56740000       2.08000000       0.35690000
H       -0.59580000       1.37750000       1.51960000
H       -2.21890000      -2.24450000      -0.36240000
H       -1.75540000      -1.41640000      -1.83160000
H        0.28240000      -4.57240000      -0.91630000
H        2.04660000      -0.98870000      -2.36390000
H        0.28680000      -0.67290000      -2.50060000
