23
Properties=species:S:1:pos:R:3 gdb_111806=T pbc="F F F"
C       -0.01340000       1.30630000      -0.19150000
O       -0.04950000      -0.02970000       0.25260000
C       -1.31000000      -0.64550000       0.11430000
C       -1.68970000      -1.11070000      -1.31600000
C       -0.56790000      -2.13010000      -1.61800000
C       -0.29520000      -2.78640000      -0.22580000
C       -1.29710000      -2.06660000       0.70580000
C       -2.72560000      -2.54120000       0.36460000
C       -2.99990000      -1.87440000      -1.02660000
H        0.98550000       1.69350000       0.02510000
H       -0.19750000       1.39510000      -1.27240000
H       -0.75510000       1.92860000       0.33420000
H       -2.08940000      -0.00760000       0.56220000
H       -1.79680000      -0.32730000      -2.06900000
H       -0.87800000      -2.85540000      -2.37620000
H        0.32700000      -1.62670000      -1.99150000
H       -0.45520000      -3.86870000      -0.22870000
H        0.73170000      -2.60240000       0.09650000
H       -1.04400000      -2.12570000       1.76570000
H       -2.78970000      -3.63230000       0.32810000
H       -3.44670000      -2.20080000       1.11400000
H       -3.85180000      -1.18940000      -0.97280000
H       -3.22390000      -2.60490000      -1.80930000
