19
Properties=species:S:1:pos:R:3 gdb_28429=T pbc="F F F"
C       -0.07010000       1.50540000       0.03860000
C       -0.02430000      -0.00020000      -0.02130000
C       -0.04010000      -0.69600000      -1.22840000
C        0.00130000      -2.08410000      -1.21560000
C        0.06400000      -2.75940000       0.00210000
N        0.17390000      -4.15220000       0.06430000
C        0.07950000      -1.97820000       1.17860000
C        0.15680000      -2.63920000       2.53040000
N        0.03340000      -0.64740000       1.15140000
H        0.81450000       1.89980000       0.54970000
H       -0.11620000       1.94610000      -0.96080000
H       -0.94290000       1.84450000       0.60660000
H       -0.08840000      -0.15930000      -2.17000000
H       -0.01230000      -2.64560000      -2.14610000
H       -0.14160000      -4.63000000      -0.76820000
H       -0.22100000      -4.57210000       0.89340000
H        1.03470000      -3.29230000       2.60780000
H        0.21420000      -1.87210000       3.30330000
H       -0.72610000      -3.26210000       2.73280000
