17
Properties=species:S:1:pos:R:3 gdb_84800=T pbc="F F F"
C        0.04480000       1.42720000      -0.08570000
N        0.00440000      -0.02870000      -0.04670000
C        0.08080000      -0.83360000      -1.06870000
N       -0.01180000      -2.11500000      -0.73520000
H        0.10960000      -2.87180000      -1.38480000
C       -0.16150000      -2.26200000       0.72640000
C        0.01050000      -0.80710000       1.21820000
C        1.39770000      -0.59310000       2.02580000
O        1.73520000       0.59600000       2.12410000
O        1.88880000      -1.65240000       2.43010000
H        0.78900000       1.73760000       0.65220000
H        0.31020000       1.75640000      -1.09280000
H       -0.93910000       1.82910000       0.17910000
H        0.21220000      -0.49180000      -2.08700000
H       -1.13140000      -2.71380000       0.95800000
H        0.65160000      -2.84430000       1.17260000
H       -0.80910000      -0.45940000       1.85080000
