20
Properties=species:S:1:pos:R:3 gdb_114135=T pbc="F F F"
O        0.71770000      -0.74200000      -1.16400000
C        0.15520000      -0.07770000      -0.04740000
C       -1.33280000      -0.35450000       0.05300000
C       -2.24150000       0.41350000       1.04750000
C       -3.05790000       0.83750000      -0.17760000
C       -4.55550000       0.79120000      -0.28110000
O       -5.17140000       1.82820000       0.47040000
C       -2.19480000       1.57430000      -1.12270000
N       -2.15130000       0.09240000      -1.14780000
H        0.13440000      -0.57080000      -1.91300000
H        0.66240000      -0.46520000       0.84390000
H        0.35560000       1.00570000      -0.08230000
H       -1.47340000      -1.43570000       0.13260000
H       -2.78080000      -0.24060000       1.73440000
H       -1.78920000       1.22720000       1.62200000
H       -4.84610000       0.81620000      -1.34270000
H       -4.93720000      -0.14450000       0.14120000
H       -4.85510000       2.66760000       0.11960000
H       -2.65190000       1.97890000      -2.02130000
H       -1.34300000       2.14230000      -0.75790000
