17
Properties=species:S:1:pos:R:3 gdb_77963=T pbc="F F F"
O       -0.08250000       1.52410000      -0.08940000
C       -0.01380000       0.10890000      -0.01510000
C       -0.02410000      -0.59950000       1.37850000
C       -1.52450000      -0.15740000       1.52570000
O       -1.87570000       1.14180000       1.85740000
C       -1.37760000      -0.62320000       0.03160000
C       -0.58990000      -1.84830000       0.61800000
C        0.27730000      -2.63050000      -0.23740000
C        0.98390000      -3.31420000      -0.93080000
H        0.80790000       1.87580000       0.01100000
H        0.71050000      -0.27540000      -0.73900000
H        0.76130000      -0.60920000       2.13540000
H       -2.13180000      -0.82120000       2.14850000
H       -1.36000000       1.72710000       1.28400000
H       -2.13690000      -0.65790000      -0.74980000
H       -1.20450000      -2.49980000       1.24540000
H        1.60710000      -3.91530000      -1.54550000
