21
Properties=species:S:1:pos:R:3 gdb_92495=T pbc="F F F"
C        0.41220000       1.44370000       0.22530000
C       -0.02980000       0.00660000      -0.05420000
C        0.62710000      -0.61800000      -1.30320000
C        1.80870000      -1.41180000      -0.74930000
C        2.25930000      -2.59940000      -1.57640000
O        2.93820000      -0.55010000      -0.40140000
C        2.80420000      -0.86140000       1.00430000
C        1.47560000      -1.60010000       0.75520000
O        0.29870000      -0.87960000       1.03440000
H        1.49980000       1.53950000       0.18270000
H       -0.01590000       2.11740000      -0.52540000
H        0.06010000       1.76240000       1.21040000
H       -1.12240000      -0.01780000      -0.12960000
H       -0.06770000      -1.29790000      -1.80630000
H        0.95820000       0.13220000      -2.02580000
H        2.62900000      -2.26580000      -2.55150000
H        3.07100000      -3.13560000      -1.07600000
H        1.43170000      -3.29650000      -1.74290000
H        3.62460000      -1.50080000       1.35570000
H        2.73680000       0.03160000       1.63360000
H        1.37810000      -2.60690000       1.16800000
