19
Properties=species:S:1:pos:R:3 gdb_126919=T pbc="F F F"
C       -0.09660000       1.57730000      -0.01930000
C       -0.03870000       0.05570000       0.05820000
N       -1.37650000      -0.51590000      -0.05340000
C       -1.48920000      -1.89860000      -0.01890000
C       -0.53910000      -2.90280000      -0.07270000
C       -1.30060000      -4.10320000      -0.08120000
N       -0.80130000      -5.40330000      -0.19160000
N       -2.60440000      -3.88080000      -0.02400000
N       -2.69940000      -2.51000000       0.02510000
H        0.90900000       2.00220000       0.04230000
H       -0.55550000       1.90230000      -0.95730000
H       -0.68220000       1.99380000       0.80880000
H        0.55840000      -0.33820000      -0.77190000
H        0.46520000      -0.25820000       0.98740000
H       -2.04390000      -0.05010000       0.54900000
H        0.53200000      -2.79540000      -0.09490000
H        0.02500000      -5.55930000       0.37040000
H       -1.51320000      -6.08580000       0.03770000
H       -3.59820000      -2.08280000      -0.11140000
