18
Properties=species:S:1:pos:R:3 gdb_55831=T pbc="F F F"
C        0.19010000       1.42690000       0.16160000
C       -0.08380000      -0.05370000       0.11490000
N       -0.61890000      -0.79490000       0.99550000
O        0.33530000      -0.56600000      -1.06590000
C        0.17390000      -1.96770000      -1.24720000
C       -1.24760000      -2.46290000      -1.63730000
C       -0.60370000      -3.15280000      -2.85080000
O       -0.97350000      -3.97600000      -3.63540000
C        0.73910000      -2.43780000      -2.60930000
H        1.26170000       1.61550000       0.04500000
H       -0.31760000       1.93030000      -0.66680000
H       -0.14950000       1.85800000       1.10440000
H       -0.86480000      -0.25230000       1.82000000
H        0.57690000      -2.49770000      -0.38330000
H       -1.78290000      -3.09300000      -0.92540000
H       -1.89930000      -1.63730000      -1.94280000
H        0.87560000      -1.59850000      -3.29960000
H        1.64000000      -3.05500000      -2.61370000
