17
Properties=species:S:1:pos:R:3 gdb_88707=T pbc="F F F"
C       -0.10880000       1.55500000      -0.09230000
C        0.01690000       0.05660000       0.04200000
N        1.33060000      -0.54450000      -0.22110000
C        0.76030000      -0.63950000       1.13370000
C        1.51540000       0.09120000       2.19100000
O        0.88870000       0.22170000       3.46860000
C        2.06280000      -0.58720000       3.39020000
C        1.88390000      -2.00920000       3.59210000
N        1.76100000      -3.14760000       3.75080000
H        0.80130000       2.06570000       0.23010000
H       -0.28710000       1.82730000      -1.13760000
H       -0.94800000       1.92870000       0.50330000
H       -0.85150000      -0.49520000      -0.31680000
H        1.24710000      -1.43400000      -0.70430000
H        0.35720000      -1.59570000       1.45970000
H        2.05760000       0.97430000       1.85760000
H        2.94620000      -0.17530000       3.87450000
