20
Properties=species:S:1:pos:R:3 gdb_40798=T pbc="F F F"
C       -0.19000000       1.41170000      -0.16580000
C        1.24580000       1.03200000       0.09630000
C        0.18210000      -0.03670000       0.04430000
C       -0.23390000      -0.77030000       1.30010000
C       -1.66290000      -1.30080000       1.19020000
O       -2.04880000      -2.03380000       2.36230000
C       -1.07320000      -2.77800000       2.93870000
N        0.16080000      -2.83580000       2.67310000
C        0.68320000      -1.95880000       1.62790000
H       -0.73140000       1.91580000       0.62840000
H       -0.46490000       1.73500000      -1.16350000
H        1.95410000       1.09430000      -0.72210000
H        1.66490000       1.28080000       1.06570000
H        0.18310000      -0.65800000      -0.84930000
H       -0.20460000      -0.06980000       2.14600000
H       -2.39200000      -0.49390000       1.08680000
H       -1.75810000      -1.96380000       0.31900000
H       -1.49920000      -3.38030000       3.73940000
H        0.85980000      -2.55850000       0.72340000
H        1.66800000      -1.60030000       1.94680000
