25
Properties=species:S:1:pos:R:3 gdb_104446=T pbc="F F F"
C        0.15660000       1.55330000       0.05520000
C       -0.04090000       0.03210000       0.01630000
C       -1.49650000      -0.48770000      -0.04410000
C       -2.21970000       0.03430000      -1.29840000
C       -1.45280000      -2.03740000      -0.04870000
C       -2.83120000      -2.67500000       0.17970000
C       -3.49600000      -2.05380000       1.40800000
O       -3.55840000      -0.64140000       1.30560000
C       -2.27110000      -0.05430000       1.22020000
H        1.22350000       1.79270000       0.10440000
H       -0.24570000       2.04450000      -0.83550000
H       -0.31780000       2.00880000       0.93030000
H        0.49760000      -0.37330000      -0.85090000
H        0.44330000      -0.40640000       0.89920000
H       -1.72180000      -0.31220000      -2.21110000
H       -3.25790000      -0.30400000      -1.32420000
H       -2.23880000       1.12800000      -1.32200000
H       -1.01360000      -2.39420000      -0.98820000
H       -0.77760000      -2.36690000       0.75350000
H       -3.47630000      -2.52380000      -0.69280000
H       -2.73270000      -3.75800000       0.31940000
H       -4.52770000      -2.39850000       1.52520000
H       -2.93870000      -2.33820000       2.31870000
H       -1.68130000      -0.31330000       2.11810000
H       -2.43860000       1.02650000       1.22880000
