22
Properties=species:S:1:pos:R:3 gdb_88445=T pbc="F F F"
C       -0.15630000       1.52820000      -0.13380000
C       -0.01690000       0.04260000       0.07650000
O        1.28450000      -0.53440000      -0.10780000
C        0.69080000      -0.61200000       1.19920000
C        1.37920000       0.18000000       2.29120000
C        0.20700000      -1.97600000       1.63010000
C        0.11500000      -3.10770000       0.66940000
N        1.07920000      -3.14780000       1.76560000
C        2.49230000      -3.04460000       1.41000000
H        0.64960000       2.09120000       0.33970000
H       -0.14210000       1.75640000      -1.20480000
H       -1.11300000       1.87930000       0.26830000
H       -0.81220000      -0.54720000      -0.38440000
H        1.70840000       1.15800000       1.93840000
H        0.70340000       0.32280000       3.14130000
H        2.25770000      -0.36120000       2.65510000
H       -0.53360000      -1.91280000       2.42830000
H       -0.70460000      -3.81980000       0.72630000
H        0.49930000      -2.91590000      -0.33070000
H        2.70310000      -2.37270000       0.56820000
H        3.05910000      -2.70350000       2.28300000
H        2.85270000      -4.04610000       1.15310000
