21
Properties=species:S:1:pos:R:3 gdb_99185=T pbc="F F F"
O        0.00910000       1.44420000      -0.26650000
C       -0.10260000       0.04690000      -0.22340000
C       -1.56530000      -0.35620000      -0.05250000
O       -2.46300000       0.44710000      -0.09980000
C       -1.79910000      -1.84500000       0.18730000
C       -3.23550000      -2.27730000      -0.05980000
C       -3.76270000      -2.37140000      -1.51940000
C       -4.54750000      -3.64650000      -1.10860000
C       -3.61590000      -3.77250000       0.12780000
H        0.93570000       1.66550000      -0.39700000
H        0.25620000      -0.43840000      -1.14920000
H        0.47340000      -0.40510000       0.60330000
H       -1.09860000      -2.42950000      -0.42560000
H       -1.51340000      -2.04920000       1.23090000
H       -3.90240000      -1.63790000       0.52500000
H       -4.32330000      -1.51960000      -1.90890000
H       -2.95480000      -2.60750000      -2.22140000
H       -5.57510000      -3.41160000      -0.81710000
H       -4.57010000      -4.48040000      -1.81380000
H       -2.76420000      -4.43000000      -0.07920000
H       -4.05920000      -4.07130000       1.08140000
