18
Properties=species:S:1:pos:R:3 gdb_83692=T pbc="F F F"
C       -0.23380000       1.61920000       0.08550000
N       -0.16720000       0.17360000       0.10400000
C       -1.02850000      -0.57450000       1.04660000
C       -1.59250000      -1.85700000       0.41430000
O       -0.34570000      -2.56040000       0.67620000
C        0.17980000      -1.45680000       1.43180000
C        1.06410000      -0.46450000       0.61830000
C        1.97600000      -1.06570000      -0.43170000
O        3.16020000      -1.22140000      -0.27910000
H        0.50730000       2.01100000      -0.61860000
H       -1.22230000       1.93940000      -0.25950000
H       -0.04490000       2.08440000       1.07070000
H       -1.63610000       0.01740000       1.73420000
H       -2.42300000      -2.32070000       0.96130000
H       -1.82370000      -1.79620000      -0.65330000
H        0.51490000      -1.74030000       2.43030000
H        1.65510000       0.16930000       1.29660000
H        1.45030000      -1.36870000      -1.36180000
