19
Properties=species:S:1:pos:R:3 gdb_40546=T pbc="F F F"
C       -0.16620000       1.44260000      -0.19210000
C        1.23780000       1.03580000       0.14450000
C        0.15030000      -0.02130000       0.06390000
C       -0.32480000      -0.71100000       1.27580000
C       -0.66560000      -2.00310000       1.38900000
C       -1.11050000      -2.37950000       2.78680000
C       -0.91440000      -1.08420000       3.56450000
O        0.43680000      -0.62130000       3.61340000
C       -0.45110000      -0.05430000       2.62130000
H       -0.73940000       1.97940000       0.55570000
H       -0.39400000       1.73090000      -1.21220000
H        1.98550000       1.04770000      -0.64070000
H        1.62160000       1.28190000       1.12850000
H        0.17380000      -0.65170000      -0.81980000
H       -0.59530000      -2.73060000       0.58730000
H       -2.16080000      -2.69910000       2.81560000
H       -0.51750000      -3.19940000       3.21080000
H       -1.51460000      -0.86170000       4.44280000
H       -0.64990000       1.00670000       2.74140000
