15
Properties=species:S:1:pos:R:3 gdb_127357=T pbc="F F F"
C        0.01160000       1.43860000       0.07150000
N       -0.01180000      -0.00670000       0.04190000
C       -0.10540000      -0.83100000      -1.07290000
N       -0.10640000      -2.11690000      -0.82980000
C       -0.00610000      -2.17640000       0.55270000
C        0.06250000      -3.00900000       1.65680000
N        0.15310000      -2.16360000       2.72530000
N        0.15060000      -0.83100000       2.42550000
C        0.05320000      -0.87870000       1.10450000
H        0.94060000       1.80460000       0.52040000
H       -0.05760000       1.81590000      -0.95090000
H       -0.83110000       1.83060000       0.65000000
H       -0.17110000      -0.39030000      -2.05910000
H        0.05640000      -4.07860000       1.78710000
H        0.22000000      -2.42680000       3.69330000
