16
Properties=species:S:1:pos:R:3 gdb_49608=T pbc="F F F"
N        0.87070000      -0.16320000      -0.11960000
C       -0.28450000       0.30520000       0.13680000
N       -1.41000000      -0.47920000      -0.00600000
C       -1.40100000      -1.84070000      -0.45900000
C       -1.92120000      -2.86830000       0.52820000
C       -2.85100000      -2.20520000      -0.45430000
O       -3.57190000      -1.07090000      -0.00110000
C       -2.70660000      -0.04550000       0.27360000
N       -3.00920000       1.09570000       0.72050000
H        1.57760000       0.55430000       0.02690000
H       -0.54000000       1.31290000       0.47160000
H       -0.68290000      -2.08200000      -1.23010000
H       -1.66940000      -3.90500000       0.33360000
H       -1.98970000      -2.59040000       1.57410000
H       -3.36860000      -2.74490000      -1.23600000
H       -4.01410000       1.17930000       0.84840000
