21
Properties=species:S:1:pos:R:3 gdb_86948=T pbc="F F F"
C        0.10790000       1.45330000      -0.24540000
C        0.05290000      -0.02200000       0.09330000
O        0.89090000      -0.82240000      -0.77820000
C        1.43130000      -1.56010000       0.33920000
C        2.95180000      -1.69020000       0.26150000
C        3.37100000      -2.46810000      -0.96930000
O        4.05680000      -3.45870000      -0.94810000
C        0.76720000      -0.58980000       1.35640000
C        1.66520000       0.34480000       2.15780000
H        1.12780000       1.84310000      -0.19840000
H       -0.26780000       1.61090000      -1.26130000
H       -0.52160000       2.02990000       0.44080000
H       -0.98850000      -0.37060000       0.03170000
H        0.98810000      -2.56600000       0.38530000
H        3.39430000      -0.68880000       0.19200000
H        3.34740000      -2.19590000       1.14750000
H        2.98700000      -2.05160000      -1.92510000
H        0.08240000      -1.10020000       2.03860000
H        2.38050000       0.88480000       1.53160000
H        1.06560000       1.09010000       2.69040000
H        2.23550000      -0.21430000       2.90670000
