19
Properties=species:S:1:pos:R:3 gdb_30170=T pbc="F F F"
C       -0.33660000       1.45950000       0.07530000
C        0.13590000       0.01420000       0.01680000
C        0.99150000      -0.35120000      -1.25300000
C        1.99640000      -1.30070000      -0.65980000
C        1.93000000      -1.20060000       0.70110000
N        2.85460000      -2.02280000       1.27120000
C        3.54080000      -2.66280000       0.24580000
C        3.02840000      -2.23410000      -0.96090000
N        0.93640000      -0.35630000       1.23740000
H        0.51310000       2.15250000       0.05290000
H       -0.97550000       1.68950000      -0.78280000
H       -0.91380000       1.65070000       0.98580000
H       -0.73920000      -0.64680000       0.02300000
H        0.34920000      -0.78540000      -2.02620000
H        1.46230000       0.54020000      -1.69530000
H        2.98400000      -2.18700000       2.25370000
H        4.32480000      -3.36760000       0.47010000
H        3.36800000      -2.56260000      -1.93170000
H        1.33720000       0.48060000       1.65840000
