17
Properties=species:S:1:pos:R:3 gdb_84700=T pbc="F F F"
O        0.04640000       1.43810000      -0.06100000
C        0.06790000       0.01580000      -0.02460000
C        0.83330000      -0.49410000       1.17590000
C        0.21760000      -1.17620000       2.14180000
C       -1.25610000      -1.47490000       2.00010000
C       -1.49510000      -2.61930000       0.99380000
O       -1.34270000      -1.95540000      -0.26040000
C       -1.36270000      -0.55450000       0.00030000
O       -1.89850000      -0.39820000       1.29740000
H       -0.37470000       1.72260000       0.75940000
H        0.55020000      -0.29910000      -0.95570000
H        1.88580000      -0.23360000       1.23720000
H        0.74470000      -1.55290000       3.01310000
H       -1.76350000      -1.60980000       2.95610000
H       -0.76460000      -3.42910000       1.06920000
H       -2.50990000      -3.02510000       1.09120000
H       -2.01010000      -0.04050000      -0.71540000
