20
Properties=species:S:1:pos:R:3 gdb_77587=T pbc="F F F"
C       -0.12640000       1.58350000      -0.06330000
C        0.03790000       0.07430000       0.03050000
C        0.66640000      -0.68500000      -1.16850000
C       -0.06480000      -1.25430000      -2.34360000
N        2.05860000      -0.18380000      -1.27090000
C        1.72770000      -1.26340000      -0.29230000
C        1.16760000      -0.52870000       0.90600000
C        1.81950000      -0.05890000       2.12390000
O        0.89730000      -1.16690000       2.13950000
H        0.80690000       2.04710000      -0.39210000
H       -0.91470000       1.85100000      -0.77570000
H       -0.40410000       2.00960000       0.90680000
H       -0.89990000      -0.41290000       0.32140000
H       -0.40260000      -0.46310000      -3.02340000
H        0.57800000      -1.93280000      -2.91570000
H       -0.94730000      -1.81780000      -2.02260000
H        2.48290000      -0.64130000      -2.07880000
H        2.22190000      -2.22720000      -0.31720000
H        2.86050000      -0.31460000       2.31610000
H        1.46330000       0.84380000       2.61800000
