20
Properties=species:S:1:pos:R:3 gdb_122921=T pbc="F F F"
N       -0.02410000       1.53200000      -0.04960000
C       -0.04460000       0.06960000       0.00450000
C       -1.44950000      -0.57190000       0.13080000
N       -2.09320000      -0.10500000       1.35330000
C       -3.50430000      -0.48780000       1.47750000
C       -4.11290000       0.21970000       2.68590000
O       -4.00670000       1.62230000       2.57110000
C        0.64200000      -0.48340000      -1.17060000
N        1.14680000      -0.93500000      -2.10620000
H       -0.43780000       1.84550000      -0.92390000
H       -0.63260000       1.86640000       0.69340000
H        0.54100000      -0.23320000       0.88510000
H       -2.05850000      -0.25500000      -0.72350000
H       -1.36040000      -1.66990000       0.07570000
H       -1.58570000      -0.47140000       2.15580000
H       -4.02150000      -0.15230000       0.57140000
H       -3.65040000      -1.57840000       1.55880000
H       -5.17700000      -0.02580000       2.76410000
H       -3.62630000      -0.14750000       3.60800000
H       -3.11670000       1.78170000       2.23170000
