19
Properties=species:S:1:pos:R:3 gdb_100908=T pbc="F F F"
N        0.14330000       1.50640000      -0.07630000
C        0.13200000       0.04700000      -0.07170000
C        0.86560000      -0.48880000       1.17940000
C        0.17990000      -0.04170000       2.39490000
N       -0.38310000       0.31660000       3.33930000
C        0.99460000      -2.02360000       1.15270000
O        1.70040000      -2.35180000      -0.02730000
C        1.73330000      -2.58060000       2.36870000
O        1.89540000      -3.97190000       2.10790000
H       -0.19460000       1.85170000      -0.96830000
H       -0.49070000       1.86520000       0.63210000
H       -0.87220000      -0.40780000      -0.10630000
H        0.68520000      -0.31450000      -0.94090000
H        1.87240000      -0.05450000       1.18080000
H       -0.01540000      -2.46590000       1.13530000
H        1.99330000      -3.26460000       0.09510000
H        2.70810000      -2.07940000       2.46310000
H        1.15580000      -2.40570000       3.28570000
H        2.51240000      -4.33810000       2.74740000
