19
Properties=species:S:1:pos:R:3 gdb_120970=T pbc="F F F"
C       -0.17420000       1.13130000       0.24190000
O       -0.07410000      -0.26340000       0.08150000
C        0.61330000      -0.63380000      -1.08400000
C        0.68300000      -2.15090000      -1.18730000
O        1.36540000      -2.69810000      -0.06870000
C        0.58190000      -3.73490000       0.46750000
C       -0.69570000      -3.32500000       1.17120000
C       -0.69910000      -3.74250000      -0.28520000
O       -0.62120000      -2.71010000      -1.23610000
H        0.81700000       1.60620000       0.31340000
H       -0.72070000       1.59990000      -0.59170000
H       -0.72120000       1.31420000       1.16970000
H        0.10810000      -0.25050000      -1.98620000
H        1.64400000      -0.24150000      -1.08310000
H        1.22820000      -2.41120000      -2.11220000
H        1.14920000      -4.61500000       0.74690000
H       -1.11590000      -4.01810000       1.89330000
H       -0.82290000      -2.26890000       1.37710000
H       -1.21140000      -4.62910000      -0.64010000
