18
Properties=species:S:1:pos:R:3 gdb_10313=T pbc="F F F"
C        0.15110000       1.41660000       0.04900000
O       -0.13440000       0.04330000      -0.15400000
C        0.59870000      -0.55720000      -1.19370000
C        2.04090000      -0.61450000      -0.86020000
N        3.15230000      -0.60380000      -0.54440000
C        0.03450000      -1.97300000      -1.45050000
C       -1.47950000      -1.92320000      -1.68050000
N        0.80680000      -2.55630000      -2.54810000
H        1.19440000       1.57260000       0.35250000
H       -0.04580000       2.00340000      -0.86050000
H       -0.51070000       1.75940000       0.84640000
H        0.50190000       0.03060000      -2.12400000
H        0.24360000      -2.56320000      -0.55160000
H       -1.86470000      -2.93500000      -1.84010000
H       -2.00000000      -1.47840000      -0.82990000
H       -1.71420000      -1.32860000      -2.57240000
H        0.71880000      -3.56630000      -2.54440000
H        0.44410000      -2.23740000      -3.44250000
