17
Properties=species:S:1:pos:R:3 gdb_46715=T pbc="F F F"
O       -0.00460000      -0.07080000      -0.11450000
C       -0.05140000       1.13260000      -0.00560000
C       -1.34710000       1.91150000       0.15170000
C       -1.15920000       3.17230000       1.01800000
C        0.24190000       3.75850000       0.87220000
C        1.08450000       3.49730000      -0.41220000
O        2.31070000       3.76330000       0.36700000
C        1.48040000       2.89000000       1.21420000
C        1.19160000       1.99000000      -0.03190000
H       -1.63690000       2.21260000      -0.86540000
H       -2.13070000       1.24710000       0.52140000
H       -1.90620000       3.92610000       0.75080000
H       -1.33160000       2.93290000       2.07430000
H        0.33610000       4.78150000       1.24090000
H        1.01150000       3.94390000      -1.40450000
H        1.87980000       2.58640000       2.18250000
H        2.06440000       1.46410000      -0.41790000
