20
Properties=species:S:1:pos:R:3 gdb_83524=T pbc="F F F"
O       -0.07980000       1.42520000       0.03030000
C        0.01070000       0.00980000       0.02240000
C        0.42910000      -0.61730000       1.37950000
C       -0.69560000      -0.08040000       2.30580000
C       -1.95690000      -0.08250000       1.37490000
C       -1.39960000      -0.61100000       0.02350000
C       -1.09320000      -2.08730000       0.26990000
N        0.21170000      -2.56990000      -0.24240000
C        0.09950000      -2.09180000       1.15730000
H        0.81520000       1.77570000       0.00020000
H        0.62270000      -0.34240000      -0.80920000
H        1.44630000      -0.39880000       1.71410000
H       -0.82490000      -0.70870000       3.19210000
H       -0.46510000       0.93160000       2.64380000
H       -2.75870000      -0.72140000       1.75700000
H       -2.35820000       0.92540000       1.25770000
H       -2.01370000      -0.38280000      -0.84910000
H       -1.90950000      -2.79220000       0.38990000
H        0.20050000      -3.58690000      -0.23220000
H        0.21660000      -2.80100000       1.97070000
