21
Properties=species:S:1:pos:R:3 gdb_36518=T pbc="F F F"
C       -0.07360000      -1.23780000       0.00590000
C       -0.05550000      -0.03570000       0.00690000
C       -0.00780000       1.42220000       0.00170000
C        1.42400000       1.99890000       0.00490000
C        1.41190000       3.52860000      -0.14320000
C        2.83410000       4.09360000      -0.01900000
C        3.49900000       3.56930000       1.25470000
O        3.49660000       2.15280000       1.30010000
C        2.18670000       1.61690000       1.28200000
H       -0.09950000      -2.29920000       0.00500000
H       -0.54060000       1.79830000      -0.88130000
H       -0.55620000       1.80910000       0.87190000
H        1.97000000       1.56780000      -0.84390000
H        0.95990000       3.81770000      -1.09920000
H        0.77870000       3.95990000       0.64620000
H        3.43360000       3.78330000      -0.88330000
H        2.81960000       5.18950000      -0.00790000
H        4.54790000       3.87490000       1.31170000
H        2.98010000       3.97550000       2.14140000
H        1.62010000       1.96860000       2.16450000
H        2.29270000       0.53220000       1.36160000
