17
Properties=species:S:1:pos:R:3 gdb_24165=T pbc="F F F"
C       -0.35650000       1.04600000      -0.23300000
C        1.07140000       1.11400000       0.27430000
C        0.42730000      -0.20980000       0.03750000
O        0.13020000      -0.95910000       1.18490000
C       -0.89160000      -1.84100000       1.05010000
C       -1.73070000      -2.06510000      -0.00240000
O       -2.60670000      -3.06630000       0.32160000
C       -2.31120000      -3.46480000       1.58120000
C       -1.26960000      -2.75580000       2.08640000
H       -1.14320000       1.29070000       0.47100000
H       -0.56210000       1.31810000      -1.26250000
H        1.85680000       1.43250000      -0.40130000
H        1.21400000       1.40220000       1.30930000
H        0.74950000      -0.82020000      -0.80450000
H       -1.84140000      -1.62950000      -0.97840000
H       -2.92420000      -4.25680000       1.97880000
H       -0.81350000      -2.85310000       3.05810000
