16
Properties=species:S:1:pos:R:3 gdb_1988=T pbc="F F F"
N        0.28690000       0.15990000       0.99930000
C       -0.00100000       0.06640000      -0.33090000
O        0.43610000       0.84770000      -1.15290000
C       -0.93880000      -1.08030000      -0.72420000
C       -0.97330000      -2.28050000       0.19760000
C       -1.90920000      -2.31860000       1.39060000
C       -2.16440000      -3.20120000       0.19450000
H        0.85930000       0.92710000       1.31000000
H       -0.10690000      -0.47270000       1.67300000
H       -1.94580000      -0.65000000      -0.80860000
H       -0.64820000      -1.37010000      -1.73850000
H       -0.00990000      -2.76280000       0.34190000
H       -1.56710000      -2.78570000       2.30800000
H       -2.57350000      -1.47350000       1.54280000
H       -2.99810000      -2.94620000      -0.45140000
H       -1.99180000      -4.26650000       0.29740000
