17
Properties=species:S:1:pos:R:3 gdb_75051=T pbc="F F F"
C       -0.03150000       1.55600000       0.06100000
C       -0.01230000       0.05510000      -0.03960000
C       -0.03400000      -0.58300000      -1.21170000
C       -0.00560000      -2.07580000      -1.39840000
C        0.22460000      -2.86710000      -0.12210000
O        0.69880000      -3.97420000      -0.10180000
C       -0.20560000      -2.17580000       1.19540000
O       -0.69570000      -2.81920000       2.08820000
C        0.04000000      -0.67940000       1.28170000
H        0.84770000       1.92570000       0.60420000
H       -0.04600000       2.02650000      -0.92500000
H       -0.90990000       1.90240000       0.62010000
H       -0.06980000       0.00290000      -2.12730000
H       -0.96460000      -2.42370000      -1.81630000
H        0.75150000      -2.38330000      -2.12980000
H        1.03390000      -0.54280000       1.73960000
H       -0.66900000      -0.26190000       2.00680000
