19
Properties=species:S:1:pos:R:3 gdb_42683=T pbc="F F F"
O        0.06380000       0.01600000      -0.00430000
C        0.00410000       1.21460000       0.00930000
C       -1.18330000       2.15800000       0.04330000
C       -0.79760000       3.25260000       1.11140000
C       -1.11600000       4.34220000       0.06170000
C       -0.84390000       3.27200000      -1.02050000
C        0.68770000       3.08340000      -1.24480000
C        1.12660000       2.26920000      -0.00580000
C        0.74230000       3.06080000       1.26550000
H       -2.18470000       1.73750000       0.06110000
H       -1.32870000       3.27390000       2.06370000
H       -2.17020000       4.63290000       0.08730000
H       -0.49650000       5.24630000       0.05650000
H       -1.41590000       3.31050000      -1.94820000
H        0.88080000       2.51260000      -2.15970000
H        1.20820000       4.04260000      -1.33360000
H        2.13880000       1.86870000      -0.03150000
H        1.26660000       4.01840000       1.34870000
H        0.97490000       2.47370000       2.16070000
