21
Properties=species:S:1:pos:R:3 gdb_76885=T pbc="F F F"
C       -0.22010000       1.57590000       0.07200000
C        0.04980000       0.07360000       0.01670000
C        0.80470000      -0.47380000      -1.22100000
C        2.14570000       0.25150000      -1.45780000
C        3.00500000      -0.31300000      -0.28730000
C        2.00440000      -1.29240000       0.35910000
O        1.23150000      -1.76600000      -0.75010000
C        0.94030000      -0.49840000       1.17190000
O        1.45770000       0.54560000       1.98240000
H        0.69930000       2.16210000       0.12310000
H       -0.78530000       1.89530000      -0.81040000
H       -0.81000000       1.82800000       0.95760000
H       -0.91150000      -0.44890000       0.04530000
H        0.18370000      -0.59840000      -2.10910000
H        2.55720000      -0.03560000      -2.42830000
H        2.05680000       1.33920000      -1.44080000
H        3.88590000      -0.84540000      -0.65200000
H        3.32620000       0.45780000       0.41450000
H        2.44670000      -2.14080000       0.88440000
H        0.35710000      -1.19430000       1.78780000
H        1.90360000       0.14630000       2.73540000
