15
Properties=species:S:1:pos:R:3 gdb_25736=T pbc="F F F"
N       -0.08340000       1.34090000       0.06790000
C        0.04450000      -0.02040000       0.05020000
O        1.13940000      -0.58430000       0.02710000
C       -1.18300000      -0.78890000       0.07450000
C       -1.34190000      -2.15850000       0.06620000
N       -0.33470000      -3.08700000       0.15220000
C       -2.75780000      -2.38890000       0.02600000
C       -3.33940000      -1.15930000       0.01880000
O       -2.42120000      -0.17340000       0.05190000
H        0.74750000       1.88360000      -0.09780000
H       -0.98150000       1.77010000      -0.07530000
H        0.58150000      -2.68310000      -0.00840000
H       -0.50060000      -3.97380000      -0.29690000
H       -3.26490000      -3.34100000       0.01470000
H       -4.37000000      -0.84230000      -0.00320000
