23
Properties=species:S:1:pos:R:3 gdb_123179=T pbc="F F F"
O       -0.20290000       1.37820000      -0.31270000
C       -0.04940000      -0.01180000      -0.06950000
C       -1.43230000      -0.64710000      -0.12040000
C       -1.39980000      -2.14800000       0.13210000
O       -2.71660000      -2.64440000       0.04540000
C       -2.80420000      -4.03620000       0.27440000
C       -4.24500000      -4.45970000       0.20010000
C       -4.87660000      -4.74340000      -1.13710000
C       -4.58360000      -5.87740000      -0.18740000
H        0.66730000       1.78580000      -0.28290000
H        0.60530000      -0.47770000      -0.82470000
H        0.41220000      -0.19440000       0.91530000
H       -2.07580000      -0.16760000       0.62470000
H       -1.88000000      -0.45560000      -1.10130000
H       -0.75120000      -2.65100000      -0.60780000
H       -0.97200000      -2.36500000       1.12740000
H       -2.21070000      -4.58790000      -0.47670000
H       -2.37850000      -4.28440000       1.26270000
H       -4.88040000      -3.99330000       0.94720000
H       -5.90930000      -4.45070000      -1.28960000
H       -4.25210000      -4.64380000      -2.01870000
H       -3.76540000      -6.54700000      -0.43270000
H       -5.41320000      -6.36100000       0.31570000
