19
Properties=species:S:1:pos:R:3 gdb_83635=T pbc="F F F"
C       -0.49220000       1.53650000      -0.13460000
C       -0.09310000       0.07800000      -0.00110000
O       -1.21540000      -0.78630000      -0.12710000
C        1.11250000      -0.42720000      -0.89910000
O        1.84200000       0.50360000      -1.64380000
C        1.82620000      -0.93090000       0.38300000
O        2.72010000       0.10010000       0.87440000
C        1.72520000       0.55160000       1.83600000
C        0.66520000      -0.40340000       1.27070000
H        0.37290000       2.20310000      -0.10200000
H       -0.97860000       1.70220000      -1.10300000
H       -1.19410000       1.81950000       0.65600000
H       -1.59880000      -0.64330000      -1.00030000
H        0.77360000      -1.23150000      -1.56070000
H        2.49450000       0.86900000      -1.02630000
H        2.27750000      -1.92430000       0.41230000
H        2.04190000       0.30710000       2.85650000
H        1.53850000       1.62830000       1.76810000
H        0.07960000      -1.00610000       1.96100000
