15
Properties=species:S:1:pos:R:3 gdb_45475=T pbc="F F F"
O       -0.07010000      -0.01120000       0.09390000
C       -0.06920000       1.17670000      -0.09170000
O       -1.18410000       1.76620000      -0.60960000
C       -1.28600000       3.17510000      -0.71310000
C       -1.70870000       3.97900000       0.53260000
O       -0.63510000       4.92450000       0.30560000
C       -0.01580000       4.04810000      -0.67440000
C        1.16330000       3.33410000      -0.09960000
C        1.10810000       2.03280000       0.18630000
H       -1.91880000       3.36500000      -1.58030000
H       -2.68970000       4.46230000       0.51430000
H       -1.58590000       3.42260000       1.47010000
H        0.24080000       4.60080000      -1.58500000
H        2.05520000       3.92010000       0.10580000
H        1.94240000       1.49500000       0.62170000
