20
Properties=species:S:1:pos:R:3 gdb_95020=T pbc="F F F"
C        0.35900000       1.44930000      -0.23860000
C       -0.17400000       0.06540000       0.13250000
O        0.01510000      -0.86650000      -0.95000000
C        1.24850000      -1.56710000      -0.77180000
C        1.49710000      -1.63050000       0.73170000
C        0.54920000      -0.56150000       1.33230000
C       -0.11230000      -1.71820000       2.09470000
C       -0.57020000      -2.80940000       1.21250000
N        0.86900000      -2.74480000       1.54910000
H        1.44730000       1.43560000      -0.36220000
H       -0.08670000       1.78570000      -1.17840000
H        0.11700000       2.17860000       0.54180000
H       -1.25710000       0.11640000       0.29200000
H        1.14330000      -2.55220000      -1.23770000
H        2.07510000      -1.03790000      -1.27030000
H        2.55260000      -1.56100000       0.99560000
H        1.01800000       0.17530000       1.98500000
H       -0.35730000      -1.68790000       3.15200000
H       -1.05310000      -3.65230000       1.69820000
H       -0.90900000      -2.60550000       0.20320000
