16
Properties=species:S:1:pos:R:3 gdb_33178=T pbc="F F F"
O       -0.20550000       1.53200000       0.31220000
C        0.07430000       0.17130000       0.01430000
C       -1.25510000      -0.55490000      -0.13830000
N       -2.00770000      -0.13240000      -1.30250000
C       -2.59720000       1.11150000      -1.54140000
C       -3.21500000       1.02010000      -2.72380000
O       -3.03990000      -0.24520000      -3.24710000
C       -2.28260000      -0.97850000      -2.35830000
O       -1.95490000      -2.12610000      -2.51810000
H        0.61270000       2.03350000       0.25550000
H        0.65450000       0.07140000      -0.91410000
H        0.64370000      -0.30710000       0.82610000
H       -1.08370000      -1.62710000      -0.26050000
H       -1.85370000      -0.39660000       0.76640000
H       -2.48690000       1.92890000      -0.85220000
H       -3.78710000       1.71430000      -3.31260000
