15
Properties=species:S:1:pos:R:3 gdb_45740=T pbc="F F F"
O       -0.12930000      -0.01710000       0.00740000
C       -0.07870000       1.18740000       0.01220000
N       -1.15150000       2.07450000       0.03050000
C       -0.65190000       3.37180000       0.03000000
N        0.62190000       3.47780000       0.01350000
C        1.13790000       2.11420000       0.00050000
C        2.26700000       1.78930000       1.01490000
O        3.22330000       1.54810000      -0.02950000
C        2.23990000       1.79870000      -1.04620000
H       -2.11970000       1.79730000       0.04190000
H       -1.33640000       4.21340000       0.04290000
H        2.53890000       2.63810000       1.65030000
H        2.08070000       0.89470000       1.62010000
H        2.03770000       0.90960000      -1.65430000
H        2.49510000       2.65330000      -1.68070000
