15
Properties=species:S:1:pos:R:3 gdb_124673=T pbc="F F F"
C       -0.17520000       1.53230000       0.05820000
C        0.11380000       0.02130000      -0.00670000
C       -1.21710000      -0.73410000       0.06750000
O       -1.63660000      -1.25880000       1.06180000
C        0.85480000      -0.38040000      -1.24390000
N        1.09280000       0.43230000      -2.24060000
O        1.77920000      -0.36780000      -3.16170000
C        1.86780000      -1.57650000      -2.60580000
N        1.32630000      -1.66730000      -1.43500000
H        0.75410000       2.10140000      -0.01580000
H       -0.82230000       1.84760000      -0.76510000
H       -0.66600000       1.77480000       1.00370000
H        0.69640000      -0.29480000       0.86410000
H       -1.80280000      -0.71810000      -0.87960000
H        2.37220000      -2.34430000      -3.17400000
