12
Properties=species:S:1:pos:R:3 gdb_23946=T pbc="F F F"
N        0.03800000      -3.72040000      -0.01830000
C        0.02730000      -2.55770000      -0.01170000
C        0.01460000      -1.19560000      -0.00400000
C       -0.00390000       0.01600000       0.00300000
C        0.00010000       1.42120000       0.01070000
C       -1.09640000       2.24520000       0.02970000
O       -0.71600000       3.53540000       0.03190000
C        0.64850000       3.55940000       0.01410000
C        1.14660000       2.30170000       0.00050000
H       -2.15560000       2.05030000       0.04250000
H        1.09720000       4.53830000       0.01360000
H        2.18270000       2.00620000      -0.01470000
