19
Properties=species:S:1:pos:R:3 gdb_68791=T pbc="F F F"
C       -0.21810000       1.52980000       0.07590000
C        0.14870000       0.08340000       0.01360000
C        0.72530000      -0.69950000      -1.17520000
C        1.35650000      -1.72120000      -0.14860000
C        2.80250000      -1.79850000      -0.17520000
C        4.00480000      -1.84310000      -0.17990000
C        0.74740000      -0.84740000       0.99200000
C        1.24170000      -0.70830000       2.39310000
O       -0.66460000      -0.85530000       0.74880000
H        0.59940000       2.15340000      -0.29980000
H       -1.10460000       1.73120000      -0.53630000
H       -0.44350000       1.82660000       1.10360000
H       -0.01120000      -1.11100000      -1.86930000
H        1.49470000      -0.15340000      -1.72420000
H        0.91140000      -2.72030000      -0.17990000
H        5.06530000      -1.89510000      -0.19050000
H        2.32220000      -0.54000000       2.40050000
H        0.74570000       0.12600000       2.89610000
H        1.03650000      -1.61990000       2.96590000
