17
Properties=species:S:1:pos:R:3 gdb_91572=T pbc="F F F"
O        0.28240000       1.32400000      -0.07250000
C        0.20320000      -0.05650000       0.09900000
C        0.22450000      -0.65270000       1.56380000
C       -1.16610000      -1.22610000       1.29810000
N       -2.01780000      -0.05600000       0.94880000
C       -1.18620000      -0.70120000      -0.09440000
C       -1.78160000      -1.25840000      -1.36080000
C       -2.25830000      -0.21810000      -2.27840000
N       -2.64530000       0.59830000      -2.99790000
H       -0.49790000       1.69140000       0.36520000
H        0.97080000      -0.50880000      -0.53440000
H        0.99860000      -1.41140000       1.69660000
H        0.28110000       0.08480000       2.36740000
H       -1.61320000      -2.12950000       1.69480000
H       -2.97720000      -0.38130000       0.83410000
H       -1.03900000      -1.87040000      -1.88670000
H       -2.62360000      -1.92120000      -1.12470000
