16
Properties=species:S:1:pos:R:3 gdb_1125=T pbc="F F F"
C       -0.03770000       1.52110000      -0.05080000
C        0.00370000      -0.00220000       0.01300000
C        0.63300000      -0.53800000       1.29080000
O       -1.34560000      -0.53160000      -0.02120000
C       -1.90970000      -0.65510000      -1.24620000
N       -3.19830000      -1.09820000      -1.11900000
O       -1.37010000      -0.38900000      -2.29610000
H        0.97780000       1.92710000      -0.00530000
H       -0.49620000       1.84900000      -0.98610000
H       -0.60930000       1.92720000       0.79010000
H        0.52810000      -0.38770000      -0.86580000
H        0.08800000      -0.18300000       2.17130000
H        0.62570000      -1.63130000       1.29890000
H        1.67000000      -0.19860000       1.36920000
H       -3.48110000      -1.51010000      -0.24590000
H       -3.63280000      -1.43490000      -1.96090000
