23
Properties=species:S:1:pos:R:3 gdb_113217=T pbc="F F F"
C       -0.31810000       1.46040000       0.38070000
C        0.33960000       0.13090000      -0.00600000
C        0.85820000      -0.63440000       1.19420000
C       -0.07430000      -1.49300000       2.03530000
C        1.00560000      -2.12900000       1.18720000
O        0.58720000      -2.74440000      -0.00900000
C        2.20670000      -2.79680000       1.78520000
C        2.56580000      -2.70820000       3.24400000
C        2.04600000      -4.00690000       2.68210000
H        0.38770000       2.11730000       0.90150000
H       -0.67920000       1.99520000      -0.50350000
H       -1.17100000       1.29830000       1.04840000
H       -0.37010000      -0.49800000      -0.55130000
H        1.17020000       0.32090000      -0.69830000
H        1.62800000      -0.11390000       1.76070000
H        0.01350000      -1.46920000       3.11590000
H       -1.08750000      -1.61670000       1.66620000
H        0.35650000      -3.65500000       0.20670000
H        3.04610000      -2.83530000       1.09520000
H        3.61780000      -2.64140000       3.49820000
H        1.91710000      -2.15100000       3.91060000
H        1.03680000      -4.29550000       2.95870000
H        2.73400000      -4.83670000       2.56510000
