17
Properties=species:S:1:pos:R:3 gdb_111193=T pbc="F F F"
O        0.04050000       1.39910000      -0.36560000
C        0.09680000       0.04100000       0.05750000
C       -1.32370000      -0.47580000       0.06500000
C       -1.97880000      -0.85240000      -1.29100000
O       -1.08410000      -2.02770000      -1.38400000
C       -1.56720000      -2.00710000       0.01280000
C       -3.00920000      -1.76340000      -0.54440000
C       -4.06230000      -1.21190000       0.27820000
C       -4.95030000      -0.76630000       0.95610000
H        0.94120000       1.73020000      -0.42570000
H        0.70610000      -0.57110000      -0.61890000
H        0.52000000      -0.04160000       1.07200000
H       -1.95980000       0.08710000       0.75170000
H       -2.12640000      -0.25160000      -2.18730000
H       -1.22650000      -2.79940000       0.68020000
H       -3.34770000      -2.59280000      -1.16860000
H       -5.73270000      -0.36900000       1.55440000
