15
Properties=species:S:1:pos:R:3 gdb_12989=T pbc="F F F"
C        0.01250000       1.54750000       0.01920000
C        0.11970000       0.05060000       0.02700000
N       -0.78750000      -0.80720000       0.84550000
C        0.66330000      -0.81920000       1.09510000
C        1.32160000      -1.99850000       0.40850000
O        1.02190000      -1.85680000      -0.99240000
C        0.42920000      -0.66230000      -1.26830000
O        0.23130000      -0.27730000      -2.38400000
H        0.93700000       2.00530000      -0.34540000
H       -0.79630000       1.86340000      -0.64610000
H       -0.18800000       1.93170000       1.02420000
H       -1.23880000      -0.20640000       1.53420000
H        1.06810000      -0.42850000       2.02180000
H        2.40990000      -1.98870000       0.53290000
H        0.92280000      -2.95920000       0.74500000
