18
Properties=species:S:1:pos:R:3 gdb_32103=T pbc="F F F"
C       -0.07180000       1.49960000      -0.00060000
C        0.03680000      -0.03660000       0.00240000
C        0.75750000      -0.52510000       1.22730000
N        2.08680000      -0.67020000       1.15570000
C        2.65820000      -1.07690000       2.28840000
N        2.03960000      -1.33810000       3.43530000
C        0.71030000      -1.15640000       3.40350000
C       -0.05360000      -1.43370000       4.66440000
N        0.02850000      -0.75270000       2.32800000
H        0.92130000       1.95860000       0.00810000
H       -0.59970000       1.84320000      -0.89440000
H       -0.62090000       1.85040000       0.87810000
H       -0.96390000      -0.47690000      -0.01160000
H        0.58670000      -0.37110000      -0.88110000
H        3.73860000      -1.20990000       2.27170000
H        0.36210000      -0.84890000       5.49030000
H       -1.10900000      -1.19620000       4.53230000
H        0.05310000      -2.48830000       4.93920000
