23
Properties=species:S:1:pos:R:3 gdb_52706=T pbc="F F F"
C        0.57570000       1.07180000       1.03290000
C        0.34420000      -0.31400000       0.65130000
C        0.15070000      -1.46030000       0.33490000
C       -0.10130000      -2.85680000      -0.05150000
C       -1.58580000      -3.10920000      -0.32580000
O        0.59340000      -3.22610000      -1.23590000
C        2.02060000      -3.22290000      -1.16000000
C        2.54560000      -4.47290000      -0.44800000
C        2.52050000      -3.12800000      -2.59730000
H        1.32930000       1.15030000       1.82430000
H        0.92660000       1.66330000       0.18010000
H       -0.34360000       1.53960000       1.40220000
H        0.21170000      -3.50400000       0.78380000
H       -2.18340000      -2.86970000       0.55720000
H       -1.92120000      -2.48650000      -1.15870000
H       -1.73570000      -4.15960000      -0.58870000
H        2.34410000      -2.32780000      -0.60870000
H        2.18360000      -4.53760000       0.58250000
H        2.22710000      -5.37490000      -0.98050000
H        3.63980000      -4.46050000      -0.41140000
H        2.13620000      -2.22290000      -3.07470000
H        3.61410000      -3.10350000      -2.62630000
H        2.17870000      -3.99200000      -3.17660000
