18
Properties=species:S:1:pos:R:3 gdb_14242=T pbc="F F F"
O       -0.31230000       1.27770000       1.00570000
C       -0.07410000       0.10240000       0.27160000
C        0.44990000      -1.11800000       1.09190000
C       -0.90960000      -1.81950000       0.90420000
C       -2.06340000      -1.30290000       1.82240000
O       -1.56090000      -0.56260000       2.93390000
C       -2.61390000      -0.43210000       0.65160000
C       -1.33940000      -0.74370000      -0.15370000
H       -0.66740000       0.99980000       1.86270000
H        0.55640000       0.39300000      -0.57240000
H        1.25100000      -1.65120000       0.57180000
H        0.77380000      -0.90450000       2.11290000
H       -0.92150000      -2.89360000       0.71670000
H       -2.74330000      -2.08690000       2.17570000
H       -2.31560000      -0.22150000       3.42540000
H       -3.51280000      -0.86510000       0.20370000
H       -2.79960000       0.62070000       0.88260000
H       -1.43210000      -0.95100000      -1.22030000
