15
Properties=species:S:1:pos:R:3 gdb_13739=T pbc="F F F"
C       -0.08710000       1.31130000      -0.14480000
C       -0.06580000      -0.20100000      -0.02390000
O        0.87830000      -0.89000000      -0.32560000
N       -1.22070000      -0.73790000       0.55750000
C       -2.58720000      -0.54950000       0.14190000
C       -1.93650000      -1.91900000       0.11010000
C       -1.64330000      -2.53300000      -1.15660000
C       -1.42610000      -3.07010000      -2.20910000
H        0.93070000       1.66930000      -0.29820000
H       -0.69690000       1.60810000      -1.00580000
H       -0.52290000       1.77460000       0.74430000
H       -3.30580000      -0.31710000       0.92410000
H       -2.77710000      -0.08350000      -0.82200000
H       -2.18780000      -2.61280000       0.90950000
H       -1.21210000      -3.54140000      -3.13650000
