15
Properties=species:S:1:pos:R:3 gdb_124251=T pbc="F F F"
C        0.05860000       1.47590000       0.00390000
C        0.03460000      -0.03710000       0.03540000
O        1.07490000      -0.69720000       0.06700000
C       -1.23000000      -0.73340000       0.02900000
C       -1.38020000      -2.12380000       0.05620000
O       -0.39230000      -3.02110000       0.09210000
C       -2.76970000      -2.35080000       0.03760000
N       -3.43700000      -1.19320000       0.00180000
N       -2.51120000      -0.23610000      -0.00300000
H        1.09280000       1.82090000       0.01260000
H       -0.44120000       1.85120000      -0.89640000
H       -0.46830000       1.88830000       0.87190000
H        0.43530000      -2.49610000       0.09500000
H       -3.30090000      -3.28930000       0.04860000
H       -2.80550000       0.72520000      -0.02830000
