21
Properties=species:S:1:pos:R:3 gdb_40143=T pbc="F F F"
C        0.13800000       1.50740000      -0.09370000
C        1.32170000       0.59380000       0.20090000
C       -0.04370000       0.02780000      -0.01000000
O       -0.77580000      -0.57660000       1.05700000
C       -1.31650000      -1.56800000       0.15510000
C       -0.55290000      -0.96600000      -1.04640000
C       -1.32650000      -0.57330000      -2.32970000
C       -0.69650000      -1.79790000      -3.04860000
C        0.35800000      -1.87350000      -1.91030000
H       -0.25560000       2.09630000       0.72800000
H        0.08190000       1.98830000      -1.06550000
H        2.07290000       0.45170000      -0.56990000
H        1.70460000       0.58340000       1.21590000
H       -1.02000000      -2.58410000       0.44400000
H       -2.41080000      -1.51060000       0.09780000
H       -2.41640000      -0.52390000      -2.25690000
H       -0.96570000       0.37460000      -2.74130000
H       -1.36470000      -2.66340000      -3.04770000
H       -0.32800000      -1.64850000      -4.06570000
H        1.28990000      -1.36630000      -2.17980000
H        0.60710000      -2.85760000      -1.50420000
