23
Properties=species:S:1:pos:R:3 gdb_113923=T pbc="F F F"
C        0.13610000       1.53820000       0.19970000
C        0.02860000       0.01230000       0.17620000
O        0.47080000      -0.55370000       1.40610000
C       -1.38370000      -0.46140000      -0.20570000
C       -1.50090000      -1.97040000      -0.29030000
C       -1.93220000      -2.80140000       0.88970000
C       -2.82340000      -2.70890000      -0.32400000
C       -4.15150000      -2.00320000      -0.25310000
O       -5.11160000      -2.92720000       0.24680000
H        1.14740000       1.84150000       0.48330000
H       -0.09650000       1.97060000      -0.77910000
H       -0.56500000       1.96590000       0.92790000
H        0.73660000      -0.38000000      -0.56560000
H       -0.13260000      -0.25950000       2.09740000
H       -2.09610000      -0.05900000       0.52760000
H       -1.64800000      -0.00470000      -1.16950000
H       -0.72820000      -2.41760000      -0.91220000
H       -1.41760000      -3.73260000       1.09700000
H       -2.25910000      -2.27150000       1.77960000
H       -2.85280000      -3.58700000      -0.96360000
H       -4.08140000      -1.11920000       0.39930000
H       -4.43940000      -1.64470000      -1.25520000
H       -5.97590000      -2.50670000       0.20840000
