21
Properties=species:S:1:pos:R:3 gdb_94585=T pbc="F F F"
C       -0.17590000       1.50220000      -0.00330000
C        0.02520000      -0.01010000       0.03050000
C        1.14050000      -0.52440000      -0.92960000
C        2.12760000      -0.56460000       0.26880000
C        0.90070000      -0.53400000       1.21800000
N        0.96950000       0.22010000       2.44300000
C        0.80050000      -0.37190000       3.67570000
N        1.04870000       0.48490000       4.74620000
O        0.49250000      -1.53870000       3.83190000
H        0.77710000       2.04390000       0.04180000
H       -0.67500000       1.80450000      -0.92970000
H       -0.79170000       1.83900000       0.83710000
H       -0.94520000      -0.50640000      -0.06620000
H        0.92450000      -1.52260000      -1.31860000
H        1.40200000       0.12610000      -1.76800000
H        2.80820000      -1.41470000       0.35410000
H        2.71710000       0.35570000       0.33990000
H        0.59930000      -1.54240000       1.50390000
H        1.42660000       1.11740000       2.41220000
H        0.82730000       1.46180000       4.62010000
H        0.70970000       0.10510000       5.61740000
