21
Properties=species:S:1:pos:R:3 gdb_122318=T pbc="F F F"
O       -0.05350000       1.43480000      -0.33340000
C        0.05040000       0.03620000      -0.11710000
C       -1.35960000      -0.53240000      -0.04000000
C       -1.37380000      -2.04550000       0.22230000
C       -2.76250000      -2.60010000       0.28560000
C       -3.83970000      -2.38600000       1.37000000
C       -4.44060000      -3.78400000       0.98570000
C       -3.34100000      -3.90770000      -0.07670000
O       -3.47480000      -2.77780000      -0.95120000
H        0.83490000       1.79560000      -0.40420000
H        0.60450000      -0.45480000      -0.93420000
H        0.59240000      -0.18330000       0.81850000
H       -1.90280000      -0.00600000       0.75380000
H       -1.88220000      -0.31650000      -0.97810000
H       -0.82750000      -2.56990000      -0.57080000
H       -0.85900000      -2.26480000       1.16740000
H       -3.43380000      -2.37010000       2.38480000
H       -4.48100000      -1.51460000       1.21980000
H       -4.35000000      -4.51600000       1.79180000
H       -5.46120000      -3.79320000       0.59620000
H       -2.88270000      -4.79870000      -0.49260000
