22
Properties=species:S:1:pos:R:3 gdb_117177=T pbc="F F F"
C       -0.06210000       0.94310000      -0.66290000
C       -0.13070000       0.12360000       0.61660000
O       -1.38800000      -0.58010000       0.72610000
C       -1.46640000      -1.77160000       0.10690000
O       -0.56040000      -2.28500000      -0.50370000
C       -2.86330000      -2.36700000       0.22650000
C       -3.72770000      -1.77250000      -0.91300000
N       -2.71820000      -3.81320000       0.24560000
C       -3.94930000      -4.58370000       0.25000000
H        0.86670000       1.52210000      -0.68280000
H       -0.07720000       0.28970000      -1.53840000
H       -0.90250000       1.64060000      -0.72500000
H        0.68290000      -0.60360000       0.66220000
H       -0.09740000       0.76180000       1.50260000
H       -3.29000000      -2.04360000       1.18340000
H       -4.75680000      -2.13440000      -0.84840000
H       -3.75000000      -0.68060000      -0.84860000
H       -3.32140000      -2.05580000      -1.88970000
H       -2.09570000      -4.09270000      -0.50440000
H       -4.54510000      -4.31780000       1.13160000
H       -4.59430000      -4.45630000      -0.63590000
H       -3.70240000      -5.64660000       0.33140000
