13
Properties=species:S:1:pos:R:3 gdb_20631=T pbc="F F F"
C       -0.00040000       1.50650000       0.00560000
C       -0.05470000       0.01320000       0.07250000
C       -1.14260000      -0.73900000      -0.19970000
C       -1.07460000      -2.16800000      -0.10130000
N       -2.02460000      -2.98490000      -0.33010000
N        0.22390000      -2.68290000       0.30150000
N        1.21060000      -2.03400000       0.55020000
O        1.11930000      -0.51930000       0.44040000
H        0.76370000       1.82540000      -0.71070000
H       -0.96780000       1.91200000      -0.29620000
H        0.27520000       1.91910000       0.98150000
H       -2.07540000      -0.27880000      -0.49390000
H       -1.70240000      -3.94310000      -0.18440000
