16
Properties=species:S:1:pos:R:3 gdb_22537=T pbc="F F F"
C       -0.09840000       1.52450000       0.03030000
C        0.03170000       0.02950000       0.05440000
N        0.21110000      -0.68290000       1.09850000
O        0.28210000       0.08550000       2.26180000
C        0.00050000      -0.76000000      -1.24990000
C        0.05070000      -2.27850000      -0.97580000
O        0.95980000      -2.97820000      -1.32330000
C       -1.19180000      -0.46630000      -2.04160000
C       -2.19050000      -0.27270000      -2.68200000
H        0.89110000       1.99030000       0.10800000
H       -0.56910000       1.86000000      -0.89520000
H       -0.68360000       1.86810000       0.88610000
H        0.38940000      -0.58500000       2.94540000
H        0.89890000      -0.51840000      -1.83370000
H       -0.84850000      -2.67130000      -0.46300000
H       -3.06470000      -0.09110000      -3.25760000
