21
Properties=species:S:1:pos:R:3 gdb_112116=T pbc="F F F"
C       -0.14770000       1.51810000      -0.13410000
C        0.02430000       0.01210000       0.00960000
O        0.71550000      -0.44170000      -1.15450000
C        0.70720000      -1.84810000      -1.29120000
C        0.98620000      -2.57160000      -0.00430000
C        1.02470000      -1.93690000       1.16570000
C        0.77750000      -0.44940000       1.27500000
C        2.09930000       0.31730000       1.49910000
O        2.86300000      -0.20340000       2.57650000
H        0.81650000       2.01480000      -0.26970000
H       -0.76500000       1.74050000      -1.00840000
H       -0.63530000       1.93720000       0.75150000
H       -0.97390000      -0.45690000       0.03500000
H       -0.25980000      -2.19230000      -1.70460000
H        1.47000000      -2.08830000      -2.04220000
H        1.13320000      -3.64670000      -0.07230000
H        1.22450000      -2.48410000       2.08290000
H        0.13590000      -0.26670000       2.14770000
H        2.67190000       0.31610000       0.56070000
H        1.89210000       1.35770000       1.76530000
H        3.18360000      -1.07040000       2.30850000
