20
Properties=species:S:1:pos:R:3 gdb_11478=T pbc="F F F"
C        0.05610000       0.86700000       0.49910000
O       -0.07860000      -0.40000000      -0.10120000
C        0.65810000      -0.55830000      -1.30340000
C        2.15000000      -0.82460000      -1.06380000
O        2.25560000      -2.19780000      -0.73460000
C        1.14000000      -2.92980000      -1.27120000
C        0.47130000      -3.70130000      -0.13870000
C        0.22850000      -1.87940000      -1.94760000
H        1.08450000       1.07270000       0.83090000
H       -0.25070000       1.67290000      -0.18660000
H       -0.59810000       0.88000000       1.37410000
H        0.49450000       0.31070000      -1.95830000
H        2.72150000      -0.58520000      -1.97670000
H        2.56910000      -0.23780000      -0.24040000
H        1.52640000      -3.63710000      -2.01810000
H        0.03570000      -3.00320000       0.58080000
H       -0.32040000      -4.35080000      -0.52770000
H        1.20630000      -4.32600000       0.37690000
H       -0.83430000      -2.06850000      -1.78590000
H        0.41310000      -1.83800000      -3.02470000
