18
Properties=species:S:1:pos:R:3 gdb_87606=T pbc="F F F"
C       -0.08700000       1.51980000      -0.07120000
C        0.03080000       0.01660000       0.01770000
C        1.32510000      -0.68080000      -0.21660000
C        0.75040000      -0.64290000       1.19760000
C        1.34890000       0.04370000       2.36470000
C        1.12730000      -0.72260000       3.44290000
N        0.42090000      -1.88370000       3.09410000
C        0.15310000      -1.91730000       1.73620000
O       -0.43880000      -2.78970000       1.13410000
H        0.84110000       2.01540000       0.22930000
H       -0.30580000       1.82520000      -1.10020000
H       -0.89140000       1.89640000       0.56880000
H       -0.85120000      -0.54240000      -0.28500000
H        1.31160000      -1.65210000      -0.69940000
H        2.21150000      -0.07970000      -0.39180000
H        1.87230000       0.98660000       2.35010000
H        1.41210000      -0.56030000       4.47200000
H        0.13570000      -2.61340000       3.72480000
