13
Properties=species:S:1:pos:R:3 gdb_7230=T pbc="F F F"
C        0.16690000       1.17370000       0.18830000
C       -0.27070000      -0.26660000       0.18600000
O        0.49220000      -1.20500000       0.19300000
C       -1.77380000      -0.52190000       0.18460000
N       -2.58290000       0.44810000       0.18690000
O       -2.17450000      -1.82620000       0.30000000
C       -1.56270000      -2.84070000      -0.41510000
O       -1.75180000      -3.97650000      -0.12810000
H        1.25580000       1.21730000       0.16630000
H       -0.25910000       1.69950000      -0.67080000
H       -0.21860000       1.68020000       1.07800000
H       -3.55070000       0.11850000       0.21270000
H       -0.98140000      -2.47620000      -1.27020000
