16
Properties=species:S:1:pos:R:3 gdb_81716=T pbc="F F F"
C       -0.10130000       1.62230000      -0.03880000
C        0.06930000       0.10870000      -0.03880000
C        0.72660000      -0.61490000      -1.23130000
C        2.16080000      -0.25990000      -1.34360000
C        1.76340000      -1.30380000      -0.28890000
C        2.28840000      -2.62650000      -0.29570000
N        2.70250000      -3.70730000      -0.28730000
C        1.12580000      -0.56570000       0.87790000
O        1.28780000      -0.60090000       2.05900000
H        0.81990000       2.13910000      -0.32290000
H       -0.88860000       1.92770000      -0.73460000
H       -0.38170000       1.96490000       0.96150000
H       -0.88410000      -0.37570000       0.20840000
H        0.19080000      -1.11670000      -2.02570000
H        2.70450000      -0.68140000      -2.18200000
H        2.53180000       0.70340000      -1.00850000
