16
Properties=species:S:1:pos:R:3 gdb_43532=T pbc="F F F"
N       -0.11210000       1.22940000      -0.63460000
C       -0.04480000       0.07840000      -0.14490000
O        1.01550000      -0.60370000       0.43420000
C        0.18880000      -1.80820000       0.64930000
C        0.10320000      -2.20670000       2.03790000
C        0.00290000      -2.55970000       3.18220000
C       -0.99840000      -1.04670000       0.03600000
C       -2.43100000      -0.97880000       0.47510000
C       -2.08630000      -1.51410000      -0.88710000
H        0.78000000       1.72140000      -0.57620000
H        0.57400000      -2.62240000       0.02730000
H       -0.07340000      -2.86600000       4.19660000
H       -2.73950000      -1.68030000       1.24290000
H       -2.86950000       0.01010000       0.54710000
H       -2.28510000      -0.89320000      -1.75370000
H       -2.17280000      -2.58230000      -1.05640000
