17
Properties=species:S:1:pos:R:3 gdb_7866=T pbc="F F F"
N        0.11310000       0.13540000       0.48560000
H        1.02050000      -0.65910000       1.76460000
H        0.71200000       0.58200000      -0.20280000
H       -0.46830000      -0.53410000      -0.01030000
C       -0.70020000       1.11710000       1.17920000
C       -1.29350000       0.71330000       2.50500000
C       -0.15110000       1.70100000       2.46070000
C        1.25470000       1.40720000       2.98980000
C        1.55800000      -0.00870000       3.49840000
O        1.96030000      -0.21300000       4.61480000
O        1.38350000      -1.00720000       2.62350000
H       -1.29320000       1.78320000       0.55410000
H       -2.28410000       1.07510000       2.75460000
H       -1.07840000      -0.29030000       2.85370000
H       -0.43720000       2.73570000       2.62470000
H        1.99670000       1.65200000       2.21690000
H        1.45460000       2.06460000       3.83740000
