23
Properties=species:S:1:pos:R:3 gdb_100099=T pbc="F F F"
C       -0.05120000       1.62740000       0.10630000
C        0.01010000       0.10420000       0.17400000
O        0.51530000      -0.23120000       1.45520000
C       -1.37300000      -0.52510000      -0.07640000
C       -1.39310000      -2.05770000      -0.20830000
C       -0.63440000      -2.55850000      -1.44750000
O       -0.78800000      -2.59610000       0.97710000
C       -2.84670000      -2.55430000      -0.24030000
O       -2.79940000      -3.97750000      -0.15090000
H        0.92810000       2.04690000       0.35200000
H       -0.33660000       1.96880000      -0.89360000
H       -0.77580000       2.01380000       0.83070000
H        0.70410000      -0.24260000      -0.61120000
H        0.34530000      -1.17390000       1.58470000
H       -2.02190000      -0.23380000       0.75890000
H       -1.80210000      -0.09850000      -0.99120000
H        0.42840000      -2.31990000      -1.37020000
H       -0.73890000      -3.64270000      -1.53850000
H       -1.02800000      -2.10150000      -2.36160000
H       -1.04990000      -3.52490000       1.01550000
H       -3.38750000      -2.12850000       0.61540000
H       -3.34380000      -2.23080000      -1.16630000
H       -3.67010000      -4.30160000       0.09360000
