16
Properties=species:S:1:pos:R:3 gdb_18435=T pbc="F F F"
C       -0.48580000       1.48960000       0.00370000
C       -0.00860000       0.05010000      -0.01050000
C        1.04940000      -0.47770000      -1.02440000
C        1.78610000      -1.03210000       0.19210000
C        2.19180000       0.04940000       1.12350000
C        2.60900000       1.34990000       0.66230000
N        2.99400000       2.38180000       0.30700000
N        0.79370000      -0.45870000       1.17790000
H        0.33090000       2.21110000      -0.03150000
H       -1.13180000       1.66790000      -0.86290000
H       -1.07660000       1.67740000       0.90620000
H       -0.88030000      -0.61010000      -0.03430000
H        0.66510000      -1.24180000      -1.70080000
H        1.60180000       0.26670000      -1.60400000
H        2.18870000      -2.03410000       0.29940000
H        2.73200000      -0.26520000       2.01240000
