18
Properties=species:S:1:pos:R:3 gdb_78436=T pbc="F F F"
O       -0.06850000       1.36760000       0.06740000
C       -0.03510000      -0.03220000       0.04300000
C       -1.40800000      -0.63600000      -0.00740000
C       -0.51110000      -0.67580000      -1.24090000
N       -0.47730000      -2.14070000      -1.24270000
C        0.80090000      -2.82520000      -0.96360000
C        0.68030000      -3.26530000       0.48030000
C       -0.48650000      -2.90160000       1.01330000
C       -1.32390000      -2.17640000      -0.00030000
H        0.68590000       1.68960000      -0.43710000
H        0.74660000      -0.49140000       0.64770000
H       -2.29140000      -0.03820000       0.17170000
H       -0.58150000      -0.10940000      -2.16430000
H        0.94820000      -3.68200000      -1.63680000
H        1.65510000      -2.15010000      -1.12210000
H        1.46180000      -3.82110000       0.98720000
H       -0.81590000      -3.10630000       2.02500000
H       -2.30120000      -2.64780000      -0.16500000
