17
Properties=species:S:1:pos:R:3 gdb_38555=T pbc="F F F"
C       -0.02880000       1.55820000       0.09750000
C        1.45020000       1.94290000       0.03340000
O        2.27380000       1.92270000      -1.16100000
C        2.22960000       0.75910000      -0.35670000
C        3.07060000       0.18850000       0.75640000
C        2.27320000      -0.71820000       1.34010000
C        1.03590000      -0.99480000       0.51310000
C        0.00220000       0.04120000      -0.10360000
C        1.26430000      -0.33390000      -0.80820000
H       -0.42810000       1.87980000       1.06630000
H       -0.65250000       2.02450000      -0.67630000
H        1.84110000       2.61920000       0.78900000
H        3.99380000       0.60450000       1.13610000
H        2.47580000      -1.23230000       2.27130000
H        0.61870000      -1.99540000       0.56060000
H       -0.92940000      -0.44580000      -0.38020000
H        1.35830000      -0.82000000      -1.77320000
