18
Properties=species:S:1:pos:R:3 gdb_131818=T pbc="F F F"
O        0.15180000       1.36280000      -0.35670000
C        0.05150000       0.01100000       0.05120000
C       -1.35020000      -0.56550000      -0.16470000
C       -1.42600000      -2.05050000       0.20560000
N       -2.76740000      -2.59540000       0.06770000
C       -3.39730000      -3.06560000      -1.03530000
C       -4.66010000      -3.38070000      -0.59460000
N       -4.74190000      -3.09090000       0.73240000
N       -3.59710000      -2.61330000       1.13140000
H       -0.42070000       1.88820000       0.21150000
H        0.78120000      -0.53530000      -0.55780000
H        0.35220000      -0.11740000       1.10380000
H       -2.07660000      -0.01700000       0.44770000
H       -1.63670000      -0.42180000      -1.21230000
H       -0.75070000      -2.64460000      -0.41850000
H       -1.14200000      -2.20400000       1.24970000
H       -2.91170000      -3.13710000      -1.99400000
H       -5.49260000      -3.79630000      -1.13860000
