23
Properties=species:S:1:pos:R:3 gdb_103071=T pbc="F F F"
C       -0.02790000       1.59260000       0.25100000
C        0.01820000       0.08250000       0.33730000
C        1.21840000      -0.71520000      -0.14980000
C        1.03510000      -1.97040000      -0.97350000
O        2.36700000       0.01840000      -0.51470000
C        0.90840000      -0.66370000       1.33000000
C        1.84560000       0.10920000       2.24360000
C        0.34800000      -1.89730000       2.04880000
O       -0.82660000      -2.47310000       1.49600000
H        0.97580000       2.02240000       0.24070000
H       -0.53400000       1.91140000      -0.66760000
H       -0.57590000       2.03010000       1.09290000
H       -0.93380000      -0.40460000       0.13840000
H        0.89040000      -1.71450000      -2.03160000
H        1.92570000      -2.60470000      -0.90520000
H        0.16950000      -2.54280000      -0.63770000
H        2.25950000       0.28590000      -1.43440000
H        2.41210000       0.86600000       1.70350000
H        1.28990000       0.59460000       3.05450000
H        2.57130000      -0.57150000       2.70550000
H        1.09770000      -2.69730000       2.04270000
H        0.17780000      -1.62900000       3.10300000
H       -1.55240000      -1.86030000       1.64840000
