23
Properties=species:S:1:pos:R:3 gdb_110865=T pbc="F F F"
C        0.26100000       1.07550000      -0.22350000
O       -0.38820000       0.00720000       0.43480000
C        0.45180000      -0.67050000       1.32150000
C        0.06120000      -1.99430000       1.86860000
C       -0.62370000      -2.84140000       0.79040000
C        0.67220000      -2.76700000      -0.08090000
C        0.57910000      -2.32790000      -1.53850000
C        1.32840000      -1.84520000       0.96890000
C        2.78880000      -1.90400000       1.32410000
H        1.09940000       0.72590000      -0.84300000
H       -0.47950000       1.55900000      -0.86530000
H        0.64570000       1.81610000       0.49440000
H        0.91640000      -0.00550000       2.05510000
H       -0.00780000      -2.16910000       2.93700000
H       -0.86020000      -3.85550000       1.11850000
H       -1.51890000      -2.39150000       0.35290000
H        1.17950000      -3.73780000      -0.03370000
H       -0.00430000      -1.41030000      -1.63670000
H        1.57380000      -2.15300000      -1.96500000
H        0.09560000      -3.10210000      -2.14530000
H        3.41430000      -1.53060000       0.50340000
H        3.01240000      -1.29740000       2.20830000
H        3.10730000      -2.93160000       1.53730000
